data_image0
_chemical_formula_structural       C72H72N48Zn12
_chemical_formula_sum              "C72 H72 N48 Zn12"
_cell_length_a       16.8509
_cell_length_b       16.8509
_cell_length_c       16.8509
_cell_angle_alpha    90
_cell_angle_beta     90
_cell_angle_gamma    90

_space_group_name_H-M_alt    "P 1"
_space_group_IT_number       1

loop_
  _space_group_symop_operation_xyz
  'x, y, z'

loop_
  _atom_site_type_symbol
  _atom_site_label
  _atom_site_symmetry_multiplicity
  _atom_site_fract_x
  _atom_site_fract_y
  _atom_site_fract_z
  _atom_site_occupancy
  C   C1        1.0  0.11416  0.54661  0.88584  1.0000
  C   C2        1.0  0.17055  0.42972  0.88791  1.0000
  C   C3        1.0  0.11209  0.42972  0.82944  1.0000
  C   C4        1.0  0.04661  0.38584  0.61416  1.0000
  C   C5        1.0  0.92973  0.32942  0.61211  1.0000
  C   C6        1.0  0.92974  0.38787  0.67059  1.0000
  C   C7        1.0  0.88584  0.54661  0.11416  1.0000
  C   C8        1.0  0.88788  0.42974  0.17058  1.0000
  C   C9        1.0  0.82942  0.42974  0.11212  1.0000
  C   C10       1.0  0.88584  0.45339  0.88584  1.0000
  C   C11       1.0  0.88790  0.57027  0.82944  1.0000
  C   C12       1.0  0.82940  0.57025  0.88786  1.0000
  C   C13       1.0  0.61416  0.38584  0.04661  1.0000
  C   C14       1.0  0.61211  0.32943  0.92973  1.0000
  C   C15       1.0  0.67054  0.38793  0.92971  1.0000
  C   C16       1.0  0.11416  0.88584  0.54661  1.0000
  C   C17       1.0  0.17059  0.88788  0.42974  1.0000
  C   C18       1.0  0.11212  0.82942  0.42974  1.0000
  C   C19       1.0  0.04661  0.61416  0.38584  1.0000
  C   C20       1.0  0.92973  0.61210  0.32944  1.0000
  C   C21       1.0  0.92972  0.67055  0.38792  1.0000
  C   C22       1.0  0.54661  0.88584  0.11416  1.0000
  C   C23       1.0  0.42972  0.88791  0.17056  1.0000
  C   C24       1.0  0.42972  0.82945  0.11209  1.0000
  C   C25       1.0  0.45339  0.88584  0.88584  1.0000
  C   C26       1.0  0.57026  0.82941  0.88788  1.0000
  C   C27       1.0  0.57026  0.88789  0.82942  1.0000
  C   C28       1.0  0.54661  0.11416  0.88584  1.0000
  C   C29       1.0  0.42973  0.11210  0.82944  1.0000
  C   C30       1.0  0.42972  0.17055  0.88792  1.0000
  C   C31       1.0  0.38584  0.04661  0.61416  1.0000
  C   C32       1.0  0.32944  0.92972  0.61209  1.0000
  C   C33       1.0  0.38791  0.92972  0.67055  1.0000
  C   C34       1.0  0.88584  0.88584  0.45339  1.0000
  C   C35       1.0  0.82940  0.88786  0.57025  1.0000
  C   C36       1.0  0.88790  0.82944  0.57027  1.0000
  C   C37       1.0  0.88584  0.11416  0.54661  1.0000
  C   C38       1.0  0.88791  0.17055  0.42972  1.0000
  C   C39       1.0  0.82944  0.11209  0.42973  1.0000
  C   C40       1.0  0.38584  0.95339  0.38584  1.0000
  C   C41       1.0  0.32942  0.07026  0.38788  1.0000
  C   C42       1.0  0.38788  0.07026  0.32942  1.0000
  C   C43       1.0  0.38584  0.38584  0.95339  1.0000
  C   C44       1.0  0.38791  0.32944  0.07028  1.0000
  C   C45       1.0  0.32945  0.38791  0.07028  1.0000
  C   C46       1.0  0.45339  0.11416  0.11416  1.0000
  C   C47       1.0  0.57026  0.17059  0.11213  1.0000
  C   C48       1.0  0.57027  0.11211  0.17057  1.0000
  C   C49       1.0  0.11416  0.11416  0.45339  1.0000
  C   C50       1.0  0.11207  0.17053  0.57029  1.0000
  C   C51       1.0  0.17057  0.11211  0.57027  1.0000
  C   C52       1.0  0.61416  0.04661  0.38584  1.0000
  C   C53       1.0  0.61212  0.92974  0.32941  1.0000
  C   C54       1.0  0.67058  0.92974  0.38788  1.0000
  C   C55       1.0  0.95339  0.38584  0.38584  1.0000
  C   C56       1.0  0.07026  0.32941  0.38788  1.0000
  C   C57       1.0  0.07026  0.38789  0.32942  1.0000
  C   C58       1.0  0.11416  0.45339  0.11416  1.0000
  C   C59       1.0  0.11209  0.57028  0.17055  1.0000
  C   C60       1.0  0.17055  0.57028  0.11209  1.0000
  C   C61       1.0  0.95339  0.61416  0.61416  1.0000
  C   C62       1.0  0.07028  0.61207  0.67054  1.0000
  C   C63       1.0  0.07027  0.67057  0.61211  1.0000
  C   C64       1.0  0.61416  0.61416  0.95339  1.0000
  C   C65       1.0  0.67058  0.61212  0.07026  1.0000
  C   C66       1.0  0.61212  0.67059  0.07026  1.0000
  C   C67       1.0  0.61416  0.95339  0.61416  1.0000
  C   C68       1.0  0.61209  0.07028  0.67055  1.0000
  C   C69       1.0  0.67055  0.07028  0.61209  1.0000
  C   C70       1.0  0.38584  0.61416  0.04661  1.0000
  C   C71       1.0  0.38791  0.67055  0.92972  1.0000
  C   C72       1.0  0.32944  0.61209  0.92973  1.0000
  H   H1        1.0  0.21184  0.38298  0.90651  1.0000
  H   H2        1.0  0.09349  0.38299  0.78815  1.0000
  H   H3        1.0  0.10048  0.60883  0.89952  1.0000
  H   H4        1.0  0.88259  0.28900  0.59264  1.0000
  H   H5        1.0  0.88260  0.40734  0.71103  1.0000
  H   H6        1.0  0.10817  0.40093  0.59907  1.0000
  H   H7        1.0  0.90735  0.38260  0.21101  1.0000
  H   H8        1.0  0.78899  0.38260  0.09265  1.0000
  H   H9        1.0  0.90093  0.60817  0.09907  1.0000
  H   H10       1.0  0.90739  0.61742  0.78903  1.0000
  H   H11       1.0  0.78895  0.61738  0.90731  1.0000
  H   H12       1.0  0.90093  0.39183  0.90093  1.0000
  H   H13       1.0  0.59353  0.28812  0.88300  1.0000
  H   H14       1.0  0.71181  0.40655  0.88297  1.0000
  H   H15       1.0  0.60048  0.39952  0.10883  1.0000
  H   H16       1.0  0.21102  0.90734  0.38260  1.0000
  H   H17       1.0  0.09264  0.78899  0.38259  1.0000
  H   H18       1.0  0.09907  0.90093  0.60817  1.0000
  H   H19       1.0  0.88299  0.59351  0.28814  1.0000
  H   H20       1.0  0.88298  0.71183  0.40653  1.0000
  H   H21       1.0  0.10883  0.60048  0.39952  1.0000
  H   H22       1.0  0.38299  0.90651  0.21185  1.0000
  H   H23       1.0  0.38298  0.78816  0.09348  1.0000
  H   H24       1.0  0.60883  0.89952  0.10048  1.0000
  H   H25       1.0  0.61740  0.78898  0.90734  1.0000
  H   H26       1.0  0.61741  0.90736  0.78900  1.0000
  H   H27       1.0  0.39183  0.90093  0.90093  1.0000
  H   H28       1.0  0.38299  0.09351  0.78814  1.0000
  H   H29       1.0  0.38298  0.21183  0.90653  1.0000
  H   H30       1.0  0.60883  0.10048  0.89952  1.0000
  H   H31       1.0  0.28815  0.88299  0.59349  1.0000
  H   H32       1.0  0.40652  0.88298  0.71184  1.0000
  H   H33       1.0  0.39952  0.10883  0.60048  1.0000
  H   H34       1.0  0.78895  0.90731  0.61739  1.0000
  H   H35       1.0  0.90739  0.78903  0.61742  1.0000
  H   H36       1.0  0.90093  0.90093  0.39183  1.0000
  H   H37       1.0  0.90652  0.21184  0.38298  1.0000
  H   H38       1.0  0.78815  0.09349  0.38299  1.0000
  H   H39       1.0  0.89952  0.10048  0.60883  1.0000
  H   H40       1.0  0.28899  0.11740  0.40735  1.0000
  H   H41       1.0  0.40735  0.11740  0.28899  1.0000
  H   H42       1.0  0.40093  0.89183  0.40093  1.0000
  H   H43       1.0  0.40651  0.28815  0.11701  1.0000
  H   H44       1.0  0.28816  0.40652  0.11702  1.0000
  H   H45       1.0  0.39952  0.39952  0.89117  1.0000
  H   H46       1.0  0.61739  0.21103  0.09267  1.0000
  H   H47       1.0  0.61741  0.09263  0.21099  1.0000
  H   H48       1.0  0.39183  0.09907  0.09907  1.0000
  H   H49       1.0  0.09345  0.21181  0.61703  1.0000
  H   H50       1.0  0.21189  0.09353  0.61700  1.0000
  H   H51       1.0  0.10048  0.10048  0.39117  1.0000
  H   H52       1.0  0.59266  0.88260  0.28898  1.0000
  H   H53       1.0  0.71101  0.88259  0.40736  1.0000
  H   H54       1.0  0.59907  0.10817  0.40093  1.0000
  H   H55       1.0  0.11740  0.28898  0.40734  1.0000
  H   H56       1.0  0.11741  0.40736  0.28900  1.0000
  H   H57       1.0  0.89183  0.40093  0.40093  1.0000
  H   H58       1.0  0.09349  0.61701  0.21185  1.0000
  H   H59       1.0  0.21185  0.61701  0.09349  1.0000
  H   H60       1.0  0.10048  0.39117  0.10048  1.0000
  H   H61       1.0  0.11703  0.59345  0.71181  1.0000
  H   H62       1.0  0.11700  0.71188  0.59352  1.0000
  H   H63       1.0  0.89117  0.60048  0.60048  1.0000
  H   H64       1.0  0.71100  0.59265  0.11741  1.0000
  H   H65       1.0  0.59266  0.71102  0.11740  1.0000
  H   H66       1.0  0.59907  0.59907  0.89183  1.0000
  H   H67       1.0  0.59349  0.11701  0.71185  1.0000
  H   H68       1.0  0.71185  0.11701  0.59349  1.0000
  H   H69       1.0  0.60048  0.89117  0.60048  1.0000
  H   H70       1.0  0.40652  0.71184  0.88298  1.0000
  H   H71       1.0  0.28815  0.59349  0.88299  1.0000
  H   H72       1.0  0.39952  0.60048  0.10883  1.0000
  N   N1        1.0  0.17144  0.50415  0.92334  1.0000
  N   N2        1.0  0.07666  0.50415  0.82856  1.0000
  N   N3        1.0  0.00414  0.32860  0.57662  1.0000
  N   N4        1.0  0.00415  0.42335  0.67142  1.0000
  N   N5        1.0  0.92337  0.50414  0.17141  1.0000
  N   N6        1.0  0.82859  0.50414  0.07663  1.0000
  N   N7        1.0  0.92340  0.49587  0.82862  1.0000
  N   N8        1.0  0.82856  0.49584  0.92333  1.0000
  N   N9        1.0  0.57669  0.32853  0.00417  1.0000
  N   N10       1.0  0.67141  0.42337  0.00414  1.0000
  N   N11       1.0  0.17141  0.92336  0.50414  1.0000
  N   N12       1.0  0.07663  0.82860  0.50414  1.0000
  N   N13       1.0  0.00416  0.57668  0.32855  1.0000
  N   N14       1.0  0.00415  0.67142  0.42335  1.0000
  N   N15       1.0  0.50416  0.92333  0.17144  1.0000
  N   N16       1.0  0.50415  0.82857  0.07666  1.0000
  N   N17       1.0  0.49586  0.82858  0.92336  1.0000
  N   N18       1.0  0.49586  0.92337  0.82860  1.0000
  N   N19       1.0  0.50416  0.07668  0.82855  1.0000
  N   N20       1.0  0.50415  0.17142  0.92335  1.0000
  N   N21       1.0  0.32856  0.00416  0.57667  1.0000
  N   N22       1.0  0.42334  0.00415  0.67143  1.0000
  N   N23       1.0  0.82856  0.92334  0.49584  1.0000
  N   N24       1.0  0.92340  0.82862  0.49587  1.0000
  N   N25       1.0  0.92334  0.17143  0.50415  1.0000
  N   N26       1.0  0.82856  0.07667  0.50416  1.0000
  N   N27       1.0  0.32859  0.99586  0.42337  1.0000
  N   N28       1.0  0.42337  0.99586  0.32859  1.0000
  N   N29       1.0  0.42333  0.32856  0.99584  1.0000
  N   N30       1.0  0.32857  0.42334  0.99585  1.0000
  N   N31       1.0  0.49585  0.17142  0.07665  1.0000
  N   N32       1.0  0.49587  0.07662  0.17139  1.0000
  N   N33       1.0  0.07663  0.17141  0.49586  1.0000
  N   N34       1.0  0.17147  0.07669  0.49583  1.0000
  N   N35       1.0  0.57664  0.00414  0.32859  1.0000
  N   N36       1.0  0.67140  0.00414  0.42337  1.0000
  N   N37       1.0  0.99586  0.32858  0.42336  1.0000
  N   N38       1.0  0.99586  0.42337  0.32860  1.0000
  N   N39       1.0  0.07666  0.49584  0.17144  1.0000
  N   N40       1.0  0.17144  0.49585  0.07666  1.0000
  N   N41       1.0  0.99586  0.57663  0.67141  1.0000
  N   N42       1.0  0.99583  0.67147  0.57669  1.0000
  N   N43       1.0  0.67140  0.57663  0.99586  1.0000
  N   N44       1.0  0.57664  0.67141  0.99586  1.0000
  N   N45       1.0  0.57666  0.99584  0.67144  1.0000
  N   N46       1.0  0.67144  0.99585  0.57666  1.0000
  N   N47       1.0  0.42334  0.67143  0.00415  1.0000
  N   N48       1.0  0.32856  0.57667  0.00416  1.0000
  Zn  Zn1       1.0  0.00000  0.50000  0.75000  1.0000
  Zn  Zn2       1.0  0.75000  0.50000  0.00000  1.0000
  Zn  Zn3       1.0  0.00000  0.75000  0.50000  1.0000
  Zn  Zn4       1.0  0.50000  0.75000  0.00000  1.0000
  Zn  Zn5       1.0  0.50000  0.00000  0.75000  1.0000
  Zn  Zn6       1.0  0.75000  0.00000  0.50000  1.0000
  Zn  Zn7       1.0  0.50000  0.00000  0.25000  1.0000
  Zn  Zn8       1.0  0.50000  0.25000  0.00000  1.0000
  Zn  Zn9       1.0  0.25000  0.00000  0.50000  1.0000
  Zn  Zn10      1.0  0.00000  0.50000  0.25000  1.0000
  Zn  Zn11      1.0  0.00000  0.25000  0.50000  1.0000
  Zn  Zn12      1.0  0.25000  0.50000  0.00000  1.0000
