data_1_GUPCAW
_chemical_name_common		'CdIF2'
_chemical_formula_structural	'Cd(mim)2'
_chemical_formula_sum		'Ar1 B2'
_citation_special_details	'original source structure doi: 10.1002/chem.200902730'
;
File: GUPCAW.cif.
;
_cell_length_a			8.99766
_cell_length_b			8.99766
_cell_length_c			6.24694
_cell_angle_alpha		90.00000
_cell_angle_beta		90.00000
_cell_angle_gamma		90.00000
_cell_volume			505.73874
_cell_formula_units_Z		32
_symmetry_space_group_name_H-M	'P 1'
_symmetry_Int_Tables_number	1
loop_
_symmetry_equiv_pos_site_id
_symmetry_equiv_pos_as_xyz
1 x,y,z
loop_
_atom_site_label
_atom_site_type_symbol
_atom_site_symmetry_multiplicity
_atom_site_fract_x
_atom_site_fract_y
_atom_site_fract_z
_atom_site_occupancy
Ar1 Ar 1 0.10926 0.73491 0.15758 1.0000
Ar2 Ar 1 0.89074 0.26509 0.84242 1.0000
Ar3 Ar 1 0.89074 0.26509 0.15758 1.0000
Ar4 Ar 1 0.10926 0.73491 0.84242 1.0000
Ar5 Ar 1 0.26509 0.10926 0.15758 1.0000
Ar6 Ar 1 0.73491 0.89074 0.84242 1.0000
Ar7 Ar 1 0.73491 0.89074 0.15758 1.0000
Ar8 Ar 1 0.26509 0.10926 0.84242 1.0000
Ar9 Ar 1 0.60926 0.23491 0.65758 1.0000
Ar10 Ar 1 0.39074 0.76509 0.34242 1.0000
Ar11 Ar 1 0.39074 0.76509 0.65758 1.0000
Ar12 Ar 1 0.60926 0.23491 0.34242 1.0000
Ar13 Ar 1 0.76509 0.60926 0.65758 1.0000
Ar14 Ar 1 0.23491 0.39074 0.34242 1.0000
Ar15 Ar 1 0.23491 0.39074 0.65758 1.0000
Ar16 Ar 1 0.76509 0.60926 0.34242 1.0000
Ar17 Ar 1 0.89074 0.73494 0.15764 1.0000
Ar18 Ar 1 0.10926 0.26506 0.84236 1.0000
Ar19 Ar 1 0.10926 0.26506 0.15764 1.0000
Ar20 Ar 1 0.89074 0.73494 0.84236 1.0000
Ar21 Ar 1 0.26506 0.89074 0.15764 1.0000
Ar22 Ar 1 0.73494 0.10926 0.84236 1.0000
Ar23 Ar 1 0.73494 0.10926 0.15764 1.0000
Ar24 Ar 1 0.26506 0.89074 0.84236 1.0000
Ar25 Ar 1 0.39074 0.23494 0.65764 1.0000
Ar26 Ar 1 0.60926 0.76506 0.34236 1.0000
Ar27 Ar 1 0.60926 0.76506 0.65764 1.0000
Ar28 Ar 1 0.39074 0.23494 0.34236 1.0000
Ar29 Ar 1 0.76506 0.39074 0.65764 1.0000
Ar30 Ar 1 0.23494 0.60926 0.34236 1.0000
Ar31 Ar 1 0.23494 0.60926 0.65764 1.0000
Ar32 Ar 1 0.76506 0.39074 0.34236 1.0000
B1 B 1 0.15555 0.65545 0.25025 1.0000
B2 B 1 0.84445 0.34455 0.74975 1.0000
B3 B 1 0.84445 0.34455 0.25025 1.0000
B4 B 1 0.15555 0.65545 0.74975 1.0000
B5 B 1 0.34455 0.15555 0.25025 1.0000
B6 B 1 0.65545 0.84445 0.74975 1.0000
B7 B 1 0.65545 0.84445 0.25025 1.0000
B8 B 1 0.34455 0.15555 0.74975 1.0000
B9 B 1 0.65555 0.15545 0.75025 1.0000
B10 B 1 0.34445 0.84455 0.24975 1.0000
B11 B 1 0.34445 0.84455 0.75025 1.0000
B12 B 1 0.65555 0.15545 0.24975 1.0000
B13 B 1 0.84455 0.65555 0.75025 1.0000
B14 B 1 0.15545 0.34445 0.24975 1.0000
B15 B 1 0.15545 0.34445 0.75025 1.0000
B16 B 1 0.84455 0.65555 0.24975 1.0000
B17 B 1 0.11830 0.71230 1.00000 1.0000
B18 B 1 0.88170 0.28770 1.00000 1.0000
B19 B 1 0.28770 0.11830 1.00000 1.0000
B20 B 1 0.71230 0.88170 1.00000 1.0000
B21 B 1 0.61830 0.21230 0.50000 1.0000
B22 B 1 0.38170 0.78770 0.50000 1.0000
B23 B 1 0.78770 0.61830 0.50000 1.0000
B24 B 1 0.21230 0.38170 0.50000 1.0000
B25 B 1 0.99945 0.75485 0.17455 1.0000
B26 B 1 0.00055 0.24515 0.82545 1.0000
B27 B 1 0.00055 0.24515 0.17455 1.0000
B28 B 1 0.99945 0.75485 0.82545 1.0000
B29 B 1 0.24515 0.99945 0.17455 1.0000
B30 B 1 0.75485 0.00055 0.82545 1.0000
B31 B 1 0.75485 0.00055 0.17455 1.0000
B32 B 1 0.24515 0.99945 0.82545 1.0000
B33 B 1 0.49945 0.25485 0.67455 1.0000
B34 B 1 0.50055 0.74515 0.32545 1.0000
B35 B 1 0.50055 0.74515 0.67455 1.0000
B36 B 1 0.49945 0.25485 0.32545 1.0000
B37 B 1 0.74515 0.49945 0.67455 1.0000
B38 B 1 0.25485 0.50055 0.32545 1.0000
B39 B 1 0.25485 0.50055 0.67455 1.0000
B40 B 1 0.74515 0.49945 0.32545 1.0000
B41 B 1 0.88200 0.71200 0.00000 1.0000
B42 B 1 0.11800 0.28800 0.00000 1.0000
B43 B 1 0.28800 0.88200 0.00000 1.0000
B44 B 1 0.71200 0.11800 0.00000 1.0000
B45 B 1 0.38200 0.21200 0.50000 1.0000
B46 B 1 0.61800 0.78800 0.50000 1.0000
B47 B 1 0.78800 0.38200 0.50000 1.0000
B48 B 1 0.21200 0.61800 0.50000 1.0000
B49 B 1 0.82355 0.82360 0.17805 1.0000
B50 B 1 0.17645 0.17640 0.82195 1.0000
B51 B 1 0.17645 0.17640 0.17805 1.0000
B52 B 1 0.82355 0.82360 0.82195 1.0000
B53 B 1 0.17640 0.82355 0.17805 1.0000
B54 B 1 0.82360 0.17645 0.82195 1.0000
B55 B 1 0.82360 0.17645 0.17805 1.0000
B56 B 1 0.17640 0.82355 0.82195 1.0000
B57 B 1 0.32355 0.32360 0.67805 1.0000
B58 B 1 0.67645 0.67640 0.32195 1.0000
B59 B 1 0.67645 0.67640 0.67805 1.0000
B60 B 1 0.32355 0.32360 0.32195 1.0000
B61 B 1 0.67640 0.32355 0.67805 1.0000
B62 B 1 0.32360 0.67645 0.32195 1.0000
B63 B 1 0.32360 0.67645 0.67805 1.0000
B64 B 1 0.67640 0.32355 0.32195 1.0000
#End of data_1_GUPCAW

data_2_GUPBUP
_chemical_name_common		'CdIF1'
_chemical_formula_structural	'Cd(mim)2'
_chemical_formula_sum		'Ar1 B2'
_citation_special_details	'original source structure doi: 10.1002/chem.200902729'
;
File: GUPBUP.cif.
;
_cell_length_a			5.54896
_cell_length_b			5.54896
_cell_length_c			5.54896
_cell_angle_alpha		90.00000
_cell_angle_beta		90.00000
_cell_angle_gamma		90.00000
_cell_volume			170.85802
_cell_formula_units_Z		12
_symmetry_space_group_name_H-M	'P 1'
_symmetry_Int_Tables_number	1
loop_
_symmetry_equiv_pos_site_id
_symmetry_equiv_pos_as_xyz
1 x,y,z
loop_
_atom_site_label
_atom_site_type_symbol
_atom_site_symmetry_multiplicity
_atom_site_fract_x
_atom_site_fract_y
_atom_site_fract_z
_atom_site_occupancy
Ar1 Ar 1 0.00000 0.25000 0.50000 1.0000
Ar2 Ar 1 0.00000 0.75000 0.50000 1.0000
Ar3 Ar 1 0.50000 0.00000 0.25000 1.0000
Ar4 Ar 1 0.50000 0.00000 0.75000 1.0000
Ar5 Ar 1 0.25000 0.50000 0.00000 1.0000
Ar6 Ar 1 0.75000 0.50000 0.00000 1.0000
Ar7 Ar 1 0.25000 0.00000 0.50000 1.0000
Ar8 Ar 1 0.75000 0.00000 0.50000 1.0000
Ar9 Ar 1 0.00000 0.50000 0.25000 1.0000
Ar10 Ar 1 0.00000 0.50000 0.75000 1.0000
Ar11 Ar 1 0.50000 0.25000 0.00000 1.0000
Ar12 Ar 1 0.50000 0.75000 0.00000 1.0000
B1 B 1 0.96980 0.36245 0.36245 1.0000
B2 B 1 0.03020 0.63755 0.36245 1.0000
B3 B 1 0.03020 0.36245 0.63755 1.0000
B4 B 1 0.96980 0.63755 0.63755 1.0000
B5 B 1 0.36245 0.96980 0.36245 1.0000
B6 B 1 0.36245 0.03020 0.63755 1.0000
B7 B 1 0.63755 0.03020 0.36245 1.0000
B8 B 1 0.63755 0.96980 0.63755 1.0000
B9 B 1 0.36245 0.36245 0.96980 1.0000
B10 B 1 0.63755 0.36245 0.03020 1.0000
B11 B 1 0.36245 0.63755 0.03020 1.0000
B12 B 1 0.63755 0.63755 0.96980 1.0000
B13 B 1 0.46980 0.86245 0.86245 1.0000
B14 B 1 0.53020 0.13755 0.86245 1.0000
B15 B 1 0.53020 0.86245 0.13755 1.0000
B16 B 1 0.46980 0.13755 0.13755 1.0000
B17 B 1 0.86245 0.46980 0.86245 1.0000
B18 B 1 0.86245 0.53020 0.13755 1.0000
B19 B 1 0.13755 0.53020 0.86245 1.0000
B20 B 1 0.13755 0.46980 0.13755 1.0000
B21 B 1 0.86245 0.86245 0.46980 1.0000
B22 B 1 0.13755 0.86245 0.53020 1.0000
B23 B 1 0.86245 0.13755 0.53020 1.0000
B24 B 1 0.13755 0.13755 0.46980 1.0000
#End of data_2_GUPBUP

data_3_GUPCOK
_chemical_name_common		'CdIF6'
_chemical_formula_structural	'Cd(eim)2'
_chemical_formula_sum		'Ar1 B2'
_citation_special_details	'original source structure doi: 10.1002/chem.200902734'
;
File: GUPCOK.cif.
;
_cell_length_a			8.56841
_cell_length_b			8.56841
_cell_length_c			8.56841
_cell_angle_alpha		90.00000
_cell_angle_beta		90.00000
_cell_angle_gamma		90.00000
_cell_volume			629.07178
_cell_formula_units_Z		48
_symmetry_space_group_name_H-M	'P 1'
_symmetry_Int_Tables_number	1
loop_
_symmetry_equiv_pos_site_id
_symmetry_equiv_pos_as_xyz
1 x,y,z
loop_
_atom_site_label
_atom_site_type_symbol
_atom_site_symmetry_multiplicity
_atom_site_fract_x
_atom_site_fract_y
_atom_site_fract_z
_atom_site_occupancy
Ar1 Ar 1 0.12500 0.83928 0.08928 1.0000
Ar2 Ar 1 0.87500 0.16072 0.91072 1.0000
Ar3 Ar 1 0.37500 0.16072 0.58928 1.0000
Ar4 Ar 1 0.62500 0.83928 0.41072 1.0000
Ar5 Ar 1 0.87500 0.33928 0.41072 1.0000
Ar6 Ar 1 0.12500 0.66072 0.58928 1.0000
Ar7 Ar 1 0.62500 0.66072 0.91072 1.0000
Ar8 Ar 1 0.37500 0.33928 0.08928 1.0000
Ar9 Ar 1 0.08928 0.12500 0.83928 1.0000
Ar10 Ar 1 0.91072 0.87500 0.16072 1.0000
Ar11 Ar 1 0.58928 0.37500 0.16072 1.0000
Ar12 Ar 1 0.41072 0.62500 0.83928 1.0000
Ar13 Ar 1 0.41072 0.87500 0.33928 1.0000
Ar14 Ar 1 0.58928 0.12500 0.66072 1.0000
Ar15 Ar 1 0.91072 0.62500 0.66072 1.0000
Ar16 Ar 1 0.08928 0.37500 0.33928 1.0000
Ar17 Ar 1 0.83928 0.08928 0.12500 1.0000
Ar18 Ar 1 0.16072 0.91072 0.87500 1.0000
Ar19 Ar 1 0.16072 0.58928 0.37500 1.0000
Ar20 Ar 1 0.83928 0.41072 0.62500 1.0000
Ar21 Ar 1 0.33928 0.41072 0.87500 1.0000
Ar22 Ar 1 0.66072 0.58928 0.12500 1.0000
Ar23 Ar 1 0.66072 0.91072 0.62500 1.0000
Ar24 Ar 1 0.33928 0.08928 0.37500 1.0000
Ar25 Ar 1 0.62500 0.33928 0.58928 1.0000
Ar26 Ar 1 0.37500 0.66072 0.41072 1.0000
Ar27 Ar 1 0.87500 0.66072 0.08928 1.0000
Ar28 Ar 1 0.12500 0.33928 0.91072 1.0000
Ar29 Ar 1 0.37500 0.83928 0.91072 1.0000
Ar30 Ar 1 0.62500 0.16072 0.08928 1.0000
Ar31 Ar 1 0.12500 0.16072 0.41072 1.0000
Ar32 Ar 1 0.87500 0.83928 0.58928 1.0000
Ar33 Ar 1 0.58928 0.62500 0.33928 1.0000
Ar34 Ar 1 0.41072 0.37500 0.66072 1.0000
Ar35 Ar 1 0.08928 0.87500 0.66072 1.0000
Ar36 Ar 1 0.91072 0.12500 0.33928 1.0000
Ar37 Ar 1 0.91072 0.37500 0.83928 1.0000
Ar38 Ar 1 0.08928 0.62500 0.16072 1.0000
Ar39 Ar 1 0.41072 0.12500 0.16072 1.0000
Ar40 Ar 1 0.58928 0.87500 0.83928 1.0000
Ar41 Ar 1 0.33928 0.58928 0.62500 1.0000
Ar42 Ar 1 0.66072 0.41072 0.37500 1.0000
Ar43 Ar 1 0.66072 0.08928 0.87500 1.0000
Ar44 Ar 1 0.33928 0.91072 0.12500 1.0000
Ar45 Ar 1 0.83928 0.91072 0.37500 1.0000
Ar46 Ar 1 0.16072 0.08928 0.62500 1.0000
Ar47 Ar 1 0.16072 0.41072 0.12500 1.0000
Ar48 Ar 1 0.83928 0.58928 0.87500 1.0000
B1 B 1 0.02589 0.87430 0.14000 1.0000
B2 B 1 0.97411 0.12570 0.86000 1.0000
B3 B 1 0.47410 0.12570 0.64000 1.0000
B4 B 1 0.52590 0.87430 0.36000 1.0000
B5 B 1 0.97411 0.37430 0.36000 1.0000
B6 B 1 0.02589 0.62570 0.64000 1.0000
B7 B 1 0.52590 0.62570 0.86000 1.0000
B8 B 1 0.47410 0.37430 0.14000 1.0000
B9 B 1 0.14000 0.02589 0.87430 1.0000
B10 B 1 0.86000 0.97411 0.12570 1.0000
B11 B 1 0.64000 0.47410 0.12570 1.0000
B12 B 1 0.36000 0.52590 0.87430 1.0000
B13 B 1 0.36000 0.97411 0.37430 1.0000
B14 B 1 0.64000 0.02589 0.62570 1.0000
B15 B 1 0.86000 0.52590 0.62570 1.0000
B16 B 1 0.14000 0.47410 0.37430 1.0000
B17 B 1 0.87430 0.14000 0.02589 1.0000
B18 B 1 0.12570 0.86000 0.97411 1.0000
B19 B 1 0.12570 0.64000 0.47410 1.0000
B20 B 1 0.87430 0.36000 0.52590 1.0000
B21 B 1 0.37430 0.36000 0.97411 1.0000
B22 B 1 0.62570 0.64000 0.02589 1.0000
B23 B 1 0.62570 0.86000 0.52590 1.0000
B24 B 1 0.37430 0.14000 0.47410 1.0000
B25 B 1 0.62430 0.27589 0.11000 1.0000
B26 B 1 0.37570 0.72410 0.89000 1.0000
B27 B 1 0.87570 0.72410 0.61000 1.0000
B28 B 1 0.12430 0.27589 0.39000 1.0000
B29 B 1 0.12430 0.22411 0.89000 1.0000
B30 B 1 0.87570 0.77590 0.11000 1.0000
B31 B 1 0.37570 0.77590 0.39000 1.0000
B32 B 1 0.62430 0.22411 0.61000 1.0000
B33 B 1 0.77590 0.39000 0.37570 1.0000
B34 B 1 0.22411 0.61000 0.62430 1.0000
B35 B 1 0.22411 0.89000 0.12430 1.0000
B36 B 1 0.77590 0.11000 0.87570 1.0000
B37 B 1 0.72410 0.61000 0.87570 1.0000
B38 B 1 0.27589 0.39000 0.12430 1.0000
B39 B 1 0.27589 0.11000 0.62430 1.0000
B40 B 1 0.72410 0.89000 0.37570 1.0000
B41 B 1 0.89000 0.12430 0.22411 1.0000
B42 B 1 0.11000 0.87570 0.77590 1.0000
B43 B 1 0.39000 0.37570 0.77590 1.0000
B44 B 1 0.61000 0.62430 0.22411 1.0000
B45 B 1 0.11000 0.62430 0.27589 1.0000
B46 B 1 0.89000 0.37570 0.72410 1.0000
B47 B 1 0.61000 0.87570 0.72410 1.0000
B48 B 1 0.39000 0.12430 0.27589 1.0000
B49 B 1 0.52590 0.37430 0.64000 1.0000
B50 B 1 0.47410 0.62570 0.36000 1.0000
B51 B 1 0.97411 0.62570 0.14000 1.0000
B52 B 1 0.02589 0.37430 0.86000 1.0000
B53 B 1 0.47410 0.87430 0.86000 1.0000
B54 B 1 0.52590 0.12570 0.14000 1.0000
B55 B 1 0.02589 0.12570 0.36000 1.0000
B56 B 1 0.97411 0.87430 0.64000 1.0000
B57 B 1 0.64000 0.52590 0.37430 1.0000
B58 B 1 0.36000 0.47410 0.62570 1.0000
B59 B 1 0.14000 0.97411 0.62570 1.0000
B60 B 1 0.86000 0.02589 0.37430 1.0000
B61 B 1 0.86000 0.47410 0.87430 1.0000
B62 B 1 0.14000 0.52590 0.12570 1.0000
B63 B 1 0.36000 0.02589 0.12570 1.0000
B64 B 1 0.64000 0.97411 0.87430 1.0000
B65 B 1 0.37430 0.64000 0.52590 1.0000
B66 B 1 0.62570 0.36000 0.47410 1.0000
B67 B 1 0.62570 0.14000 0.97411 1.0000
B68 B 1 0.37430 0.86000 0.02589 1.0000
B69 B 1 0.87430 0.86000 0.47410 1.0000
B70 B 1 0.12570 0.14000 0.52590 1.0000
B71 B 1 0.12570 0.36000 0.02589 1.0000
B72 B 1 0.87430 0.64000 0.97411 1.0000
B73 B 1 0.12430 0.77590 0.61000 1.0000
B74 B 1 0.87570 0.22411 0.39000 1.0000
B75 B 1 0.37570 0.22411 0.11000 1.0000
B76 B 1 0.62430 0.77590 0.89000 1.0000
B77 B 1 0.62430 0.72410 0.39000 1.0000
B78 B 1 0.37570 0.27589 0.61000 1.0000
B79 B 1 0.87570 0.27589 0.89000 1.0000
B80 B 1 0.12430 0.72410 0.11000 1.0000
B81 B 1 0.27589 0.89000 0.87570 1.0000
B82 B 1 0.72410 0.11000 0.12430 1.0000
B83 B 1 0.72410 0.39000 0.62430 1.0000
B84 B 1 0.27589 0.61000 0.37570 1.0000
B85 B 1 0.22411 0.11000 0.37570 1.0000
B86 B 1 0.77590 0.89000 0.62430 1.0000
B87 B 1 0.77590 0.61000 0.12430 1.0000
B88 B 1 0.22411 0.39000 0.87570 1.0000
B89 B 1 0.39000 0.62430 0.72410 1.0000
B90 B 1 0.61000 0.37570 0.27589 1.0000
B91 B 1 0.89000 0.87570 0.27589 1.0000
B92 B 1 0.11000 0.12430 0.72410 1.0000
B93 B 1 0.61000 0.12430 0.77590 1.0000
B94 B 1 0.39000 0.87570 0.22411 1.0000
B95 B 1 0.11000 0.37570 0.22411 1.0000
B96 B 1 0.89000 0.62430 0.77590 1.0000
#End of data_3_GUPCOK

data_4_GUPDIF
_chemical_name_common		'CdIF10'
_chemical_formula_structural	'Cd(pim)2'
_chemical_formula_sum		'Ar1 B2'
_citation_special_details	'original source structure doi: 10.1002/chem.200902739'
;
File: GUPDIF.cif.
;
_cell_length_a			8.58405
_cell_length_b			8.58405
_cell_length_c			8.58405
_cell_angle_alpha		90.00000
_cell_angle_beta		90.00000
_cell_angle_gamma		90.00000
_cell_volume			632.52391
_cell_formula_units_Z		48
_symmetry_space_group_name_H-M	'P 1'
_symmetry_Int_Tables_number	1
loop_
_symmetry_equiv_pos_site_id
_symmetry_equiv_pos_as_xyz
1 x,y,z
loop_
_atom_site_label
_atom_site_type_symbol
_atom_site_symmetry_multiplicity
_atom_site_fract_x
_atom_site_fract_y
_atom_site_fract_z
_atom_site_occupancy
Ar1 Ar 1 0.12500 0.66046 0.58954 1.0000
Ar2 Ar 1 0.87500 0.33954 0.41046 1.0000
Ar3 Ar 1 0.37500 0.33954 0.08954 1.0000
Ar4 Ar 1 0.62500 0.66046 0.91046 1.0000
Ar5 Ar 1 0.87500 0.16046 0.91046 1.0000
Ar6 Ar 1 0.12500 0.83954 0.08954 1.0000
Ar7 Ar 1 0.62500 0.83954 0.41046 1.0000
Ar8 Ar 1 0.37500 0.16046 0.58954 1.0000
Ar9 Ar 1 0.58954 0.12500 0.66046 1.0000
Ar10 Ar 1 0.41046 0.87500 0.33954 1.0000
Ar11 Ar 1 0.08954 0.37500 0.33954 1.0000
Ar12 Ar 1 0.91046 0.62500 0.66046 1.0000
Ar13 Ar 1 0.91046 0.87500 0.16046 1.0000
Ar14 Ar 1 0.08954 0.12500 0.83954 1.0000
Ar15 Ar 1 0.41046 0.62500 0.83954 1.0000
Ar16 Ar 1 0.58954 0.37500 0.16046 1.0000
Ar17 Ar 1 0.66046 0.58954 0.12500 1.0000
Ar18 Ar 1 0.33954 0.41046 0.87500 1.0000
Ar19 Ar 1 0.33954 0.08954 0.37500 1.0000
Ar20 Ar 1 0.66046 0.91046 0.62500 1.0000
Ar21 Ar 1 0.16046 0.91046 0.87500 1.0000
Ar22 Ar 1 0.83954 0.08954 0.12500 1.0000
Ar23 Ar 1 0.83954 0.41046 0.62500 1.0000
Ar24 Ar 1 0.16046 0.58954 0.37500 1.0000
Ar25 Ar 1 0.41046 0.37500 0.66046 1.0000
Ar26 Ar 1 0.58954 0.62500 0.33954 1.0000
Ar27 Ar 1 0.08954 0.62500 0.16046 1.0000
Ar28 Ar 1 0.91046 0.37500 0.83954 1.0000
Ar29 Ar 1 0.91046 0.12500 0.33954 1.0000
Ar30 Ar 1 0.08954 0.87500 0.66046 1.0000
Ar31 Ar 1 0.58954 0.87500 0.83954 1.0000
Ar32 Ar 1 0.41046 0.12500 0.16046 1.0000
Ar33 Ar 1 0.87500 0.83954 0.58954 1.0000
Ar34 Ar 1 0.12500 0.16046 0.41046 1.0000
Ar35 Ar 1 0.12500 0.33954 0.91046 1.0000
Ar36 Ar 1 0.87500 0.66046 0.08954 1.0000
Ar37 Ar 1 0.62500 0.16046 0.08954 1.0000
Ar38 Ar 1 0.37500 0.83954 0.91046 1.0000
Ar39 Ar 1 0.37500 0.66046 0.41046 1.0000
Ar40 Ar 1 0.62500 0.33954 0.58954 1.0000
Ar41 Ar 1 0.33954 0.91046 0.12500 1.0000
Ar42 Ar 1 0.66046 0.08954 0.87500 1.0000
Ar43 Ar 1 0.83954 0.58954 0.87500 1.0000
Ar44 Ar 1 0.16046 0.41046 0.12500 1.0000
Ar45 Ar 1 0.66046 0.41046 0.37500 1.0000
Ar46 Ar 1 0.33954 0.58954 0.62500 1.0000
Ar47 Ar 1 0.16046 0.08954 0.62500 1.0000
Ar48 Ar 1 0.83954 0.91046 0.37500 1.0000
B1 B 1 0.12668 0.64047 0.47418 1.0000
B2 B 1 0.87332 0.35953 0.52582 1.0000
B3 B 1 0.37332 0.35953 0.97418 1.0000
B4 B 1 0.62668 0.64047 0.02582 1.0000
B5 B 1 0.87332 0.14047 0.02582 1.0000
B6 B 1 0.12668 0.85953 0.97418 1.0000
B7 B 1 0.62668 0.85953 0.52582 1.0000
B8 B 1 0.37332 0.14047 0.47418 1.0000
B9 B 1 0.47418 0.12668 0.64047 1.0000
B10 B 1 0.52582 0.87332 0.35953 1.0000
B11 B 1 0.97418 0.37332 0.35953 1.0000
B12 B 1 0.02582 0.62668 0.64047 1.0000
B13 B 1 0.02582 0.87332 0.14047 1.0000
B14 B 1 0.97418 0.12668 0.85953 1.0000
B15 B 1 0.52582 0.62668 0.85953 1.0000
B16 B 1 0.47418 0.37332 0.14047 1.0000
B17 B 1 0.64047 0.47418 0.12668 1.0000
B18 B 1 0.35953 0.52582 0.87332 1.0000
B19 B 1 0.35953 0.97418 0.37332 1.0000
B20 B 1 0.64047 0.02582 0.62668 1.0000
B21 B 1 0.14047 0.02582 0.87332 1.0000
B22 B 1 0.85953 0.97418 0.12668 1.0000
B23 B 1 0.85953 0.52582 0.62668 1.0000
B24 B 1 0.14047 0.47418 0.37332 1.0000
B25 B 1 0.39047 0.37668 0.77582 1.0000
B26 B 1 0.60953 0.62332 0.22418 1.0000
B27 B 1 0.10953 0.62332 0.27582 1.0000
B28 B 1 0.89047 0.37668 0.72418 1.0000
B29 B 1 0.89047 0.12332 0.22418 1.0000
B30 B 1 0.10953 0.87668 0.77582 1.0000
B31 B 1 0.60953 0.87668 0.72418 1.0000
B32 B 1 0.39047 0.12332 0.27582 1.0000
B33 B 1 0.87668 0.72418 0.60953 1.0000
B34 B 1 0.12332 0.27582 0.39047 1.0000
B35 B 1 0.12332 0.22418 0.89047 1.0000
B36 B 1 0.87668 0.77582 0.10953 1.0000
B37 B 1 0.62332 0.27582 0.10953 1.0000
B38 B 1 0.37668 0.72418 0.89047 1.0000
B39 B 1 0.37668 0.77582 0.39047 1.0000
B40 B 1 0.62332 0.22418 0.60953 1.0000
B41 B 1 0.22418 0.89047 0.12332 1.0000
B42 B 1 0.77582 0.10953 0.87668 1.0000
B43 B 1 0.72418 0.60953 0.87668 1.0000
B44 B 1 0.27582 0.39047 0.12332 1.0000
B45 B 1 0.77582 0.39047 0.37668 1.0000
B46 B 1 0.22418 0.60953 0.62332 1.0000
B47 B 1 0.27582 0.10953 0.62332 1.0000
B48 B 1 0.72418 0.89047 0.37668 1.0000
B49 B 1 0.62668 0.14047 0.97418 1.0000
B50 B 1 0.37332 0.85953 0.02582 1.0000
B51 B 1 0.87332 0.85953 0.47418 1.0000
B52 B 1 0.12668 0.14047 0.52582 1.0000
B53 B 1 0.37332 0.64047 0.52582 1.0000
B54 B 1 0.62668 0.35953 0.47418 1.0000
B55 B 1 0.12668 0.35953 0.02582 1.0000
B56 B 1 0.87332 0.64047 0.97418 1.0000
B57 B 1 0.97418 0.62668 0.14047 1.0000
B58 B 1 0.02582 0.37332 0.85953 1.0000
B59 B 1 0.47418 0.87332 0.85953 1.0000
B60 B 1 0.52582 0.12668 0.14047 1.0000
B61 B 1 0.52582 0.37332 0.64047 1.0000
B62 B 1 0.47418 0.62668 0.35953 1.0000
B63 B 1 0.02582 0.12668 0.35953 1.0000
B64 B 1 0.97418 0.87332 0.64047 1.0000
B65 B 1 0.14047 0.97418 0.62668 1.0000
B66 B 1 0.85953 0.02582 0.37332 1.0000
B67 B 1 0.85953 0.47418 0.87332 1.0000
B68 B 1 0.14047 0.52582 0.12668 1.0000
B69 B 1 0.64047 0.52582 0.37332 1.0000
B70 B 1 0.35953 0.47418 0.62668 1.0000
B71 B 1 0.35953 0.02582 0.12668 1.0000
B72 B 1 0.64047 0.97418 0.87332 1.0000
B73 B 1 0.89047 0.87668 0.27582 1.0000
B74 B 1 0.10953 0.12332 0.72418 1.0000
B75 B 1 0.60953 0.12332 0.77582 1.0000
B76 B 1 0.39047 0.87668 0.22418 1.0000
B77 B 1 0.39047 0.62332 0.72418 1.0000
B78 B 1 0.60953 0.37668 0.27582 1.0000
B79 B 1 0.10953 0.37668 0.22418 1.0000
B80 B 1 0.89047 0.62332 0.77582 1.0000
B81 B 1 0.37668 0.22418 0.10953 1.0000
B82 B 1 0.62332 0.77582 0.89047 1.0000
B83 B 1 0.62332 0.72418 0.39047 1.0000
B84 B 1 0.37668 0.27582 0.60953 1.0000
B85 B 1 0.12332 0.77582 0.60953 1.0000
B86 B 1 0.87668 0.22418 0.39047 1.0000
B87 B 1 0.87668 0.27582 0.89047 1.0000
B88 B 1 0.12332 0.72418 0.10953 1.0000
B89 B 1 0.72418 0.39047 0.62332 1.0000
B90 B 1 0.27582 0.60953 0.37668 1.0000
B91 B 1 0.22418 0.10953 0.37668 1.0000
B92 B 1 0.77582 0.89047 0.62332 1.0000
B93 B 1 0.27582 0.89047 0.87668 1.0000
B94 B 1 0.72418 0.10953 0.12332 1.0000
B95 B 1 0.77582 0.60953 0.12332 1.0000
B96 B 1 0.22418 0.39047 0.87668 1.0000
#End of data_4_GUPDIF

data_5_PUWQAA
_chemical_name_common		'CdIF7b'
_chemical_formula_structural	'Cd(nim)2'
_chemical_formula_sum		'Ar1 B2'
_citation_special_details	'original source structure doi: 10.1002/chem.200902736'
;
File: PUWQAA.cif.
;
_cell_length_a			2.88095
_cell_length_b			10.26877
_cell_length_c			4.46716
_cell_angle_alpha		90.00000
_cell_angle_beta		90.00000
_cell_angle_gamma		90.00000
_cell_volume			132.15559
_cell_formula_units_Z		16
_symmetry_space_group_name_H-M	'P 1'
_symmetry_Int_Tables_number	1
loop_
_symmetry_equiv_pos_site_id
_symmetry_equiv_pos_as_xyz
1 x,y,z
loop_
_atom_site_label
_atom_site_type_symbol
_atom_site_symmetry_multiplicity
_atom_site_fract_x
_atom_site_fract_y
_atom_site_fract_z
_atom_site_occupancy
Ar1 Ar 1 0.58888 0.19133 0.99295 1.0000
Ar2 Ar 1 0.41112 0.80867 0.00705 1.0000
Ar3 Ar 1 0.91112 0.30867 0.49295 1.0000
Ar4 Ar 1 0.08888 0.69133 0.50705 1.0000
Ar5 Ar 1 0.41112 0.19133 0.50705 1.0000
Ar6 Ar 1 0.58888 0.80867 0.49295 1.0000
Ar7 Ar 1 0.08888 0.30867 0.00705 1.0000
Ar8 Ar 1 0.91112 0.69133 0.99295 1.0000
Ar9 Ar 1 0.50000 0.95828 0.75000 1.0000
Ar10 Ar 1 0.50000 0.04172 0.25000 1.0000
Ar11 Ar 1 0.00000 0.54172 0.25000 1.0000
Ar12 Ar 1 0.00000 0.45828 0.75000 1.0000
Ar13 Ar 1 0.00000 0.08857 0.75000 1.0000
Ar14 Ar 1 0.00000 0.91143 0.25000 1.0000
Ar15 Ar 1 0.50000 0.41143 0.25000 1.0000
Ar16 Ar 1 0.50000 0.58857 0.75000 1.0000
B1 B 1 0.76845 0.01751 0.69550 1.0000
B2 B 1 0.23155 0.98250 0.30450 1.0000
B3 B 1 0.73155 0.48250 0.19550 1.0000
B4 B 1 0.26845 0.51750 0.80450 1.0000
B5 B 1 0.23155 0.01751 0.80450 1.0000
B6 B 1 0.76845 0.98250 0.19550 1.0000
B7 B 1 0.26845 0.48250 0.30450 1.0000
B8 B 1 0.73155 0.51750 0.69550 1.0000
B9 B 1 0.88525 0.15180 0.90595 1.0000
B10 B 1 0.11475 0.84820 0.09405 1.0000
B11 B 1 0.61475 0.34820 0.40595 1.0000
B12 B 1 0.38525 0.65180 0.59405 1.0000
B13 B 1 0.11475 0.15180 0.59405 1.0000
B14 B 1 0.88525 0.84820 0.40595 1.0000
B15 B 1 0.38525 0.34820 0.09405 1.0000
B16 B 1 0.61475 0.65180 0.90595 1.0000
B17 B 1 0.28940 0.23501 0.93840 1.0000
B18 B 1 0.71060 0.76499 0.06160 1.0000
B19 B 1 0.21060 0.26500 0.43840 1.0000
B20 B 1 0.78940 0.73501 0.56160 1.0000
B21 B 1 0.71060 0.23501 0.56160 1.0000
B22 B 1 0.28940 0.76499 0.43840 1.0000
B23 B 1 0.78940 0.26500 0.06160 1.0000
B24 B 1 0.21060 0.73501 0.93840 1.0000
B25 B 1 0.49980 0.10164 0.06850 1.0000
B26 B 1 0.50020 0.89837 0.93150 1.0000
B27 B 1 0.00020 0.39836 0.56850 1.0000
B28 B 1 0.99980 0.60163 0.43150 1.0000
B29 B 1 0.50020 0.10164 0.43150 1.0000
B30 B 1 0.49980 0.89837 0.56850 1.0000
B31 B 1 0.99980 0.39836 0.93150 1.0000
B32 B 1 0.00020 0.60163 0.06850 1.0000
#End of data_5_PUWQAA

data_6_GUPBOJ01
_chemical_name_common		'CdIF5'
_chemical_formula_structural	'Cd(mim)2'
_chemical_formula_sum		'Ar1 B2'
_citation_special_details	'original source structure doi: 10.1002/chem.200902733'
;
File: GUPBOJ01.cif.
;
_cell_length_a			5.24446
_cell_length_b			9.08965
_cell_length_c			4.53558
_cell_angle_alpha		90.00000
_cell_angle_beta		103.62200
_cell_angle_gamma		90.00000
_cell_volume			210.13076
_cell_formula_units_Z		24
_symmetry_space_group_name_H-M	'P 1'
_symmetry_Int_Tables_number	1
loop_
_symmetry_equiv_pos_site_id
_symmetry_equiv_pos_as_xyz
1 x,y,z
loop_
_atom_site_label
_atom_site_type_symbol
_atom_site_symmetry_multiplicity
_atom_site_fract_x
_atom_site_fract_y
_atom_site_fract_z
_atom_site_occupancy
Ar1 Ar 1 0.42804 0.18476 0.19376 1.0000
Ar2 Ar 1 0.57196 0.81524 0.80624 1.0000
Ar3 Ar 1 0.57196 0.68476 0.30624 1.0000
Ar4 Ar 1 0.42804 0.31524 0.69376 1.0000
Ar5 Ar 1 0.48471 0.39398 0.11140 1.0000
Ar6 Ar 1 0.51529 0.60602 0.88860 1.0000
Ar7 Ar 1 0.51529 0.89398 0.38860 1.0000
Ar8 Ar 1 0.48471 0.10602 0.61140 1.0000
Ar9 Ar 1 0.28037 0.54867 0.27114 1.0000
Ar10 Ar 1 0.71963 0.45133 0.72886 1.0000
Ar11 Ar 1 0.71963 0.04867 0.22886 1.0000
Ar12 Ar 1 0.28037 0.95133 0.77114 1.0000
Ar13 Ar 1 0.18352 0.51718 0.66014 1.0000
Ar14 Ar 1 0.81648 0.48282 0.33986 1.0000
Ar15 Ar 1 0.81648 0.01718 0.83986 1.0000
Ar16 Ar 1 0.18352 0.98282 0.16014 1.0000
Ar17 Ar 1 0.07112 0.36912 0.91444 1.0000
Ar18 Ar 1 0.92888 0.63088 0.08556 1.0000
Ar19 Ar 1 0.92888 0.86912 0.58556 1.0000
Ar20 Ar 1 0.07112 0.13088 0.41444 1.0000
Ar21 Ar 1 0.88661 0.65734 0.65176 1.0000
Ar22 Ar 1 0.11339 0.34266 0.34824 1.0000
Ar23 Ar 1 0.11339 0.15734 0.84824 1.0000
Ar24 Ar 1 0.88661 0.84266 0.15176 1.0000
B1 B 1 0.58895 0.13105 0.17180 1.0000
B2 B 1 0.41105 0.86895 0.82820 1.0000
B3 B 1 0.41105 0.63105 0.32820 1.0000
B4 B 1 0.58895 0.36895 0.67180 1.0000
B5 B 1 0.42650 0.13270 0.39125 1.0000
B6 B 1 0.57350 0.86730 0.60875 1.0000
B7 B 1 0.57350 0.63270 0.10875 1.0000
B8 B 1 0.42650 0.36730 0.89125 1.0000
B9 B 1 0.46340 0.29445 0.19915 1.0000
B10 B 1 0.53660 0.70555 0.80085 1.0000
B11 B 1 0.53660 0.79445 0.30085 1.0000
B12 B 1 0.46340 0.20555 0.69915 1.0000
B13 B 1 0.37780 0.47905 0.16010 1.0000
B14 B 1 0.62220 0.52095 0.83990 1.0000
B15 B 1 0.62220 0.97905 0.33990 1.0000
B16 B 1 0.37780 0.02095 0.66010 1.0000
B17 B 1 0.22375 0.51030 0.45410 1.0000
B18 B 1 0.77625 0.48970 0.54590 1.0000
B19 B 1 0.77625 0.01030 0.04590 1.0000
B20 B 1 0.22375 0.98970 0.95410 1.0000
B21 B 1 0.32835 0.57640 0.79305 1.0000
B22 B 1 0.67165 0.42360 0.20695 1.0000
B23 B 1 0.67165 0.07640 0.70695 1.0000
B24 B 1 0.32835 0.92360 0.29305 1.0000
B25 B 1 0.14790 0.42555 0.76635 1.0000
B26 B 1 0.85210 0.57445 0.23365 1.0000
B27 B 1 0.85210 0.92555 0.73365 1.0000
B28 B 1 0.14790 0.07445 0.26635 1.0000
B29 B 1 0.04960 0.26205 0.85800 1.0000
B30 B 1 0.95040 0.73795 0.14200 1.0000
B31 B 1 0.95040 0.76205 0.64200 1.0000
B32 B 1 0.04960 0.23795 0.35800 1.0000
B33 B 1 0.89660 0.42135 0.86315 1.0000
B34 B 1 0.10340 0.57865 0.13685 1.0000
B35 B 1 0.10340 0.92135 0.63685 1.0000
B36 B 1 0.89660 0.07865 0.36315 1.0000
B37 B 1 0.02995 0.58815 0.62005 1.0000
B38 B 1 0.97005 0.41185 0.37995 1.0000
B39 B 1 0.97005 0.08815 0.87995 1.0000
B40 B 1 0.02995 0.91185 0.12005 1.0000
B41 B 1 0.74320 0.67170 0.46240 1.0000
B42 B 1 0.25680 0.32830 0.53760 1.0000
B43 B 1 0.25680 0.17170 0.03760 1.0000
B44 B 1 0.74320 0.82830 0.96240 1.0000
B45 B 1 0.86225 0.63335 0.85920 1.0000
B46 B 1 0.13775 0.36665 0.14080 1.0000
B47 B 1 0.13775 0.13335 0.64080 1.0000
B48 B 1 0.86225 0.86665 0.35920 1.0000
#End of data_6_GUPBOJ01

data_7_GUPCEA
_chemical_name_common		'CdIF4'
_chemical_formula_structural	'Cd(eim)2'
_chemical_formula_sum		'Ar1 B2'
_citation_special_details	'original source structure doi: 10.1002/chem.200902732'
;
File: GUPCEA.cif.
;
_cell_length_a			9.46717
_cell_length_b			9.46717
_cell_length_c			9.46717
_cell_angle_alpha		90.00000
_cell_angle_beta		90.00000
_cell_angle_gamma		90.00000
_cell_volume			848.51616
_cell_formula_units_Z		48
_symmetry_space_group_name_H-M	'P 1'
_symmetry_Int_Tables_number	1
loop_
_symmetry_equiv_pos_site_id
_symmetry_equiv_pos_as_xyz
1 x,y,z
loop_
_atom_site_label
_atom_site_type_symbol
_atom_site_symmetry_multiplicity
_atom_site_fract_x
_atom_site_fract_y
_atom_site_fract_z
_atom_site_occupancy
Ar1 Ar 1 0.10389 0.39611 0.25000 1.0000
Ar2 Ar 1 0.89611 0.60389 0.75000 1.0000
Ar3 Ar 1 0.89611 0.60389 0.25000 1.0000
Ar4 Ar 1 0.10389 0.39611 0.75000 1.0000
Ar5 Ar 1 0.89611 0.39611 0.75000 1.0000
Ar6 Ar 1 0.10389 0.60389 0.25000 1.0000
Ar7 Ar 1 0.10389 0.60389 0.75000 1.0000
Ar8 Ar 1 0.89611 0.39611 0.25000 1.0000
Ar9 Ar 1 0.25000 0.10389 0.39611 1.0000
Ar10 Ar 1 0.75000 0.89611 0.60389 1.0000
Ar11 Ar 1 0.25000 0.89611 0.60389 1.0000
Ar12 Ar 1 0.75000 0.10389 0.39611 1.0000
Ar13 Ar 1 0.75000 0.89611 0.39611 1.0000
Ar14 Ar 1 0.25000 0.10389 0.60389 1.0000
Ar15 Ar 1 0.75000 0.10389 0.60389 1.0000
Ar16 Ar 1 0.25000 0.89611 0.39611 1.0000
Ar17 Ar 1 0.39611 0.25000 0.10389 1.0000
Ar18 Ar 1 0.60389 0.75000 0.89611 1.0000
Ar19 Ar 1 0.60389 0.25000 0.89611 1.0000
Ar20 Ar 1 0.39611 0.75000 0.10389 1.0000
Ar21 Ar 1 0.39611 0.75000 0.89611 1.0000
Ar22 Ar 1 0.60389 0.25000 0.10389 1.0000
Ar23 Ar 1 0.60389 0.75000 0.10389 1.0000
Ar24 Ar 1 0.39611 0.25000 0.89611 1.0000
Ar25 Ar 1 0.39611 0.10389 0.75000 1.0000
Ar26 Ar 1 0.60389 0.89611 0.25000 1.0000
Ar27 Ar 1 0.60389 0.89611 0.75000 1.0000
Ar28 Ar 1 0.39611 0.10389 0.25000 1.0000
Ar29 Ar 1 0.39611 0.89611 0.25000 1.0000
Ar30 Ar 1 0.60389 0.10389 0.75000 1.0000
Ar31 Ar 1 0.60389 0.10389 0.25000 1.0000
Ar32 Ar 1 0.39611 0.89611 0.75000 1.0000
Ar33 Ar 1 0.10389 0.25000 0.60389 1.0000
Ar34 Ar 1 0.89611 0.75000 0.39611 1.0000
Ar35 Ar 1 0.89611 0.25000 0.39611 1.0000
Ar36 Ar 1 0.10389 0.75000 0.60389 1.0000
Ar37 Ar 1 0.89611 0.75000 0.60389 1.0000
Ar38 Ar 1 0.10389 0.25000 0.39611 1.0000
Ar39 Ar 1 0.10389 0.75000 0.39611 1.0000
Ar40 Ar 1 0.89611 0.25000 0.60389 1.0000
Ar41 Ar 1 0.25000 0.39611 0.89611 1.0000
Ar42 Ar 1 0.75000 0.60389 0.10389 1.0000
Ar43 Ar 1 0.25000 0.60389 0.10389 1.0000
Ar44 Ar 1 0.75000 0.39611 0.89611 1.0000
Ar45 Ar 1 0.75000 0.39611 0.10389 1.0000
Ar46 Ar 1 0.25000 0.60389 0.89611 1.0000
Ar47 Ar 1 0.75000 0.60389 0.89611 1.0000
Ar48 Ar 1 0.25000 0.39611 0.10389 1.0000
B1 B 1 0.11950 0.33400 0.33400 1.0000
B2 B 1 0.88050 0.66600 0.66600 1.0000
B3 B 1 0.88050 0.66600 0.33400 1.0000
B4 B 1 0.11950 0.33400 0.66600 1.0000
B5 B 1 0.88050 0.33400 0.66600 1.0000
B6 B 1 0.11950 0.66600 0.33400 1.0000
B7 B 1 0.11950 0.66600 0.66600 1.0000
B8 B 1 0.88050 0.33400 0.33400 1.0000
B9 B 1 0.33400 0.11950 0.33400 1.0000
B10 B 1 0.66600 0.88050 0.66600 1.0000
B11 B 1 0.33400 0.88050 0.66600 1.0000
B12 B 1 0.66600 0.11950 0.33400 1.0000
B13 B 1 0.66600 0.88050 0.33400 1.0000
B14 B 1 0.33400 0.11950 0.66600 1.0000
B15 B 1 0.66600 0.11950 0.66600 1.0000
B16 B 1 0.33400 0.88050 0.33400 1.0000
B17 B 1 0.33400 0.33400 0.11950 1.0000
B18 B 1 0.66600 0.66600 0.88050 1.0000
B19 B 1 0.66600 0.33400 0.88050 1.0000
B20 B 1 0.33400 0.66600 0.11950 1.0000
B21 B 1 0.33400 0.66600 0.88050 1.0000
B22 B 1 0.66600 0.33400 0.11950 1.0000
B23 B 1 0.66600 0.66600 0.11950 1.0000
B24 B 1 0.33400 0.33400 0.88050 1.0000
B25 B 1 0.61950 0.83400 0.83400 1.0000
B26 B 1 0.38050 0.16600 0.16600 1.0000
B27 B 1 0.38050 0.16600 0.83400 1.0000
B28 B 1 0.61950 0.83400 0.16600 1.0000
B29 B 1 0.38050 0.83400 0.16600 1.0000
B30 B 1 0.61950 0.16600 0.83400 1.0000
B31 B 1 0.61950 0.16600 0.16600 1.0000
B32 B 1 0.38050 0.83400 0.83400 1.0000
B33 B 1 0.83400 0.61950 0.83400 1.0000
B34 B 1 0.16600 0.38050 0.16600 1.0000
B35 B 1 0.83400 0.38050 0.16600 1.0000
B36 B 1 0.16600 0.61950 0.83400 1.0000
B37 B 1 0.16600 0.38050 0.83400 1.0000
B38 B 1 0.83400 0.61950 0.16600 1.0000
B39 B 1 0.16600 0.61950 0.16600 1.0000
B40 B 1 0.83400 0.38050 0.83400 1.0000
B41 B 1 0.83400 0.83400 0.61950 1.0000
B42 B 1 0.16600 0.16600 0.38050 1.0000
B43 B 1 0.16600 0.83400 0.38050 1.0000
B44 B 1 0.83400 0.16600 0.61950 1.0000
B45 B 1 0.83400 0.16600 0.38050 1.0000
B46 B 1 0.16600 0.83400 0.61950 1.0000
B47 B 1 0.16600 0.16600 0.61950 1.0000
B48 B 1 0.83400 0.83400 0.38050 1.0000
B49 B 1 0.00000 0.38620 0.22990 1.0000
B50 B 1 0.00000 0.61380 0.77010 1.0000
B51 B 1 0.00000 0.61380 0.22990 1.0000
B52 B 1 0.00000 0.38620 0.77010 1.0000
B53 B 1 0.22990 0.00000 0.38620 1.0000
B54 B 1 0.77010 0.00000 0.61380 1.0000
B55 B 1 0.22990 0.00000 0.61380 1.0000
B56 B 1 0.77010 0.00000 0.38620 1.0000
B57 B 1 0.38620 0.22990 0.00000 1.0000
B58 B 1 0.61380 0.77010 0.00000 1.0000
B59 B 1 0.61380 0.22990 0.00000 1.0000
B60 B 1 0.38620 0.77010 0.00000 1.0000
B61 B 1 0.38620 0.00000 0.77010 1.0000
B62 B 1 0.61380 0.00000 0.22990 1.0000
B63 B 1 0.61380 0.00000 0.77010 1.0000
B64 B 1 0.38620 0.00000 0.22990 1.0000
B65 B 1 0.00000 0.22990 0.61380 1.0000
B66 B 1 0.00000 0.77010 0.38620 1.0000
B67 B 1 0.00000 0.22990 0.38620 1.0000
B68 B 1 0.00000 0.77010 0.61380 1.0000
B69 B 1 0.22990 0.38620 0.00000 1.0000
B70 B 1 0.77010 0.61380 0.00000 1.0000
B71 B 1 0.22990 0.61380 0.00000 1.0000
B72 B 1 0.77010 0.38620 0.00000 1.0000
B73 B 1 0.50000 0.88620 0.72990 1.0000
B74 B 1 0.50000 0.11380 0.27010 1.0000
B75 B 1 0.50000 0.11380 0.72990 1.0000
B76 B 1 0.50000 0.88620 0.27010 1.0000
B77 B 1 0.72990 0.50000 0.88620 1.0000
B78 B 1 0.27010 0.50000 0.11380 1.0000
B79 B 1 0.72990 0.50000 0.11380 1.0000
B80 B 1 0.27010 0.50000 0.88620 1.0000
B81 B 1 0.88620 0.72990 0.50000 1.0000
B82 B 1 0.11380 0.27010 0.50000 1.0000
B83 B 1 0.11380 0.72990 0.50000 1.0000
B84 B 1 0.88620 0.27010 0.50000 1.0000
B85 B 1 0.88620 0.50000 0.27010 1.0000
B86 B 1 0.11380 0.50000 0.72990 1.0000
B87 B 1 0.11380 0.50000 0.27010 1.0000
B88 B 1 0.88620 0.50000 0.72990 1.0000
B89 B 1 0.50000 0.72990 0.11380 1.0000
B90 B 1 0.50000 0.27010 0.88620 1.0000
B91 B 1 0.50000 0.72990 0.88620 1.0000
B92 B 1 0.50000 0.27010 0.11380 1.0000
B93 B 1 0.72990 0.88620 0.50000 1.0000
B94 B 1 0.27010 0.11380 0.50000 1.0000
B95 B 1 0.72990 0.11380 0.50000 1.0000
B96 B 1 0.27010 0.88620 0.50000 1.0000
#End of data_7_GUPCEA

data_8_GUPCUQ01
_chemical_name_common		'CdIF8'
_chemical_formula_structural	'Cd(nim)2'
_chemical_formula_sum		'Ar1 B2'
_citation_special_details	'original source structure doi: 10.1002/chem.200902737'
;
File: GUPCUQ01.cif.
;
_cell_length_a			5.46475
_cell_length_b			5.46475
_cell_length_c			5.46475
_cell_angle_alpha		90.00000
_cell_angle_beta		90.00000
_cell_angle_gamma		90.00000
_cell_volume			163.19634
_cell_formula_units_Z		12
_symmetry_space_group_name_H-M	'P 1'
_symmetry_Int_Tables_number	1
loop_
_symmetry_equiv_pos_site_id
_symmetry_equiv_pos_as_xyz
1 x,y,z
loop_
_atom_site_label
_atom_site_type_symbol
_atom_site_symmetry_multiplicity
_atom_site_fract_x
_atom_site_fract_y
_atom_site_fract_z
_atom_site_occupancy
Ar1 Ar 1 0.00000 0.25000 0.50000 1.0000
Ar2 Ar 1 0.00000 0.75000 0.50000 1.0000
Ar3 Ar 1 0.50000 0.00000 0.25000 1.0000
Ar4 Ar 1 0.50000 0.00000 0.75000 1.0000
Ar5 Ar 1 0.25000 0.50000 0.00000 1.0000
Ar6 Ar 1 0.75000 0.50000 0.00000 1.0000
Ar7 Ar 1 0.25000 0.00000 0.50000 1.0000
Ar8 Ar 1 0.75000 0.00000 0.50000 1.0000
Ar9 Ar 1 0.00000 0.50000 0.25000 1.0000
Ar10 Ar 1 0.00000 0.50000 0.75000 1.0000
Ar11 Ar 1 0.50000 0.25000 0.00000 1.0000
Ar12 Ar 1 0.50000 0.75000 0.00000 1.0000
B1 B 1 0.97870 0.34515 0.34515 1.0000
B2 B 1 0.02130 0.65485 0.34515 1.0000
B3 B 1 0.02130 0.34515 0.65485 1.0000
B4 B 1 0.97870 0.65485 0.65485 1.0000
B5 B 1 0.34515 0.97870 0.34515 1.0000
B6 B 1 0.34515 0.02130 0.65485 1.0000
B7 B 1 0.65485 0.02130 0.34515 1.0000
B8 B 1 0.65485 0.97870 0.65485 1.0000
B9 B 1 0.34515 0.34515 0.97870 1.0000
B10 B 1 0.65485 0.34515 0.02130 1.0000
B11 B 1 0.34515 0.65485 0.02130 1.0000
B12 B 1 0.65485 0.65485 0.97870 1.0000
B13 B 1 0.47870 0.84515 0.84515 1.0000
B14 B 1 0.52130 0.15485 0.84515 1.0000
B15 B 1 0.52130 0.84515 0.15485 1.0000
B16 B 1 0.47870 0.15485 0.15485 1.0000
B17 B 1 0.84515 0.47870 0.84515 1.0000
B18 B 1 0.84515 0.52130 0.15485 1.0000
B19 B 1 0.15485 0.52130 0.84515 1.0000
B20 B 1 0.15485 0.47870 0.15485 1.0000
B21 B 1 0.84515 0.84515 0.47870 1.0000
B22 B 1 0.15485 0.84515 0.52130 1.0000
B23 B 1 0.84515 0.15485 0.52130 1.0000
B24 B 1 0.15485 0.15485 0.47870 1.0000
#End of data_8_GUPCUQ01

data_9_GUPDUR
_chemical_name_common		'CdIF12'
_chemical_formula_structural	'Cd(phim)2'
_chemical_formula_sum		'Ar1 B2'
_citation_special_details	'original source structure doi: 10.1002/chem.200902741'
;
File: GUPDUR.cif.
;
_cell_length_a			3.19717
_cell_length_b			3.19717
_cell_length_c			4.56708
_cell_angle_alpha		90.00000
_cell_angle_beta		90.00000
_cell_angle_gamma		90.00000
_cell_volume			46.68426
_cell_formula_units_Z		4
_symmetry_space_group_name_H-M	'P 1'
_symmetry_Int_Tables_number	1
loop_
_symmetry_equiv_pos_site_id
_symmetry_equiv_pos_as_xyz
1 x,y,z
loop_
_atom_site_label
_atom_site_type_symbol
_atom_site_symmetry_multiplicity
_atom_site_fract_x
_atom_site_fract_y
_atom_site_fract_z
_atom_site_occupancy
Ar1 Ar 1 0.50000 0.50000 0.50000 1.0000
Ar2 Ar 1 0.00000 0.50000 0.25000 1.0000
Ar3 Ar 1 0.00000 0.00000 0.00000 1.0000
Ar4 Ar 1 0.50000 0.00000 0.75000 1.0000
B1 B 1 0.25000 0.44130 0.37500 1.0000
B2 B 1 0.75000 0.55870 0.37500 1.0000
B3 B 1 0.44130 0.75000 0.62500 1.0000
B4 B 1 0.55870 0.25000 0.62500 1.0000
B5 B 1 0.05870 0.75000 0.12500 1.0000
B6 B 1 0.94130 0.25000 0.12500 1.0000
B7 B 1 0.75000 0.94130 0.87500 1.0000
B8 B 1 0.25000 0.05870 0.87500 1.0000
#End of data_9_GUPDUR

data_10_GUPCUQ
_chemical_name_common		'CdIF7a'
_chemical_formula_structural	'Cd(nim)2'
_chemical_formula_sum		'Ar1 B2'
_citation_special_details	'original source structure doi: 10.1002/chem.200902735'
;
File: GUPCUQ.cif.
;
_cell_length_a			4.83185
_cell_length_b			3.63858
_cell_length_c			7.34557
_cell_angle_alpha		90.00000
_cell_angle_beta		90.00000
_cell_angle_gamma		90.00000
_cell_volume			129.14302
_cell_formula_units_Z		16
_symmetry_space_group_name_H-M	'P 1'
_symmetry_Int_Tables_number	1
loop_
_symmetry_equiv_pos_site_id
_symmetry_equiv_pos_as_xyz
1 x,y,z
loop_
_atom_site_label
_atom_site_type_symbol
_atom_site_symmetry_multiplicity
_atom_site_fract_x
_atom_site_fract_y
_atom_site_fract_z
_atom_site_occupancy
Ar1 Ar 1 0.81397 0.29135 0.01273 1.0000
Ar2 Ar 1 0.18603 0.70865 0.98727 1.0000
Ar3 Ar 1 0.68603 0.70865 0.51273 1.0000
Ar4 Ar 1 0.31397 0.29135 0.48727 1.0000
Ar5 Ar 1 0.18603 0.79135 0.48727 1.0000
Ar6 Ar 1 0.81397 0.20865 0.51273 1.0000
Ar7 Ar 1 0.31397 0.20865 0.98727 1.0000
Ar8 Ar 1 0.68603 0.79135 0.01273 1.0000
Ar9 Ar 1 0.93613 0.25697 0.76154 1.0000
Ar10 Ar 1 0.06387 0.74303 0.23846 1.0000
Ar11 Ar 1 0.56387 0.74303 0.26154 1.0000
Ar12 Ar 1 0.43613 0.25697 0.73846 1.0000
Ar13 Ar 1 0.06387 0.75697 0.73846 1.0000
Ar14 Ar 1 0.93613 0.24303 0.26154 1.0000
Ar15 Ar 1 0.43613 0.24303 0.23846 1.0000
Ar16 Ar 1 0.56387 0.75697 0.76154 1.0000
B1 B 1 0.92665 0.31125 0.12705 1.0000
B2 B 1 0.07335 0.68875 0.87295 1.0000
B3 B 1 0.57335 0.68875 0.62705 1.0000
B4 B 1 0.42665 0.31125 0.37295 1.0000
B5 B 1 0.07335 0.81125 0.37295 1.0000
B6 B 1 0.92665 0.18875 0.62705 1.0000
B7 B 1 0.42665 0.18875 0.87295 1.0000
B8 B 1 0.57335 0.81125 0.12705 1.0000
B9 B 1 0.80745 0.01405 0.02420 1.0000
B10 B 1 0.19255 0.98595 0.97580 1.0000
B11 B 1 0.69255 0.98595 0.52420 1.0000
B12 B 1 0.30745 0.01405 0.47580 1.0000
B13 B 1 0.19255 0.51405 0.47580 1.0000
B14 B 1 0.80745 0.48595 0.52420 1.0000
B15 B 1 0.30745 0.48595 0.97580 1.0000
B16 B 1 0.69255 0.51405 0.02420 1.0000
B17 B 1 0.82245 0.28350 0.87524 1.0000
B18 B 1 0.17755 0.71650 0.12475 1.0000
B19 B 1 0.67755 0.71650 0.37524 1.0000
B20 B 1 0.32245 0.28350 0.62476 1.0000
B21 B 1 0.17755 0.78350 0.62476 1.0000
B22 B 1 0.82245 0.21650 0.37524 1.0000
B23 B 1 0.32245 0.21650 0.12475 1.0000
B24 B 1 0.67755 0.78350 0.87524 1.0000
B25 B 1 0.04920 0.02775 0.77200 1.0000
B26 B 1 0.95080 0.97225 0.22800 1.0000
B27 B 1 0.45080 0.97225 0.27199 1.0000
B28 B 1 0.54920 0.02775 0.72800 1.0000
B29 B 1 0.95080 0.52775 0.72800 1.0000
B30 B 1 0.04920 0.47225 0.27199 1.0000
B31 B 1 0.54920 0.47225 0.22800 1.0000
B32 B 1 0.45080 0.52775 0.77200 1.0000
#End of data_10_GUPCUQ

data_11_GUPDOL
_chemical_name_common		'CdIF11'
_chemical_formula_structural	'Cd(buim)2'
_chemical_formula_sum		'Ar1 B2'
_citation_special_details	'original source structure doi: 10.1002/chem.200902740'
;
File: GUPDOL.cif.
;
_cell_length_a			8.62198
_cell_length_b			8.62198
_cell_length_c			8.62198
_cell_angle_alpha		90.00000
_cell_angle_beta		90.00000
_cell_angle_gamma		90.00000
_cell_volume			640.94555
_cell_formula_units_Z		48
_symmetry_space_group_name_H-M	'P 1'
_symmetry_Int_Tables_number	1
loop_
_symmetry_equiv_pos_site_id
_symmetry_equiv_pos_as_xyz
1 x,y,z
loop_
_atom_site_label
_atom_site_type_symbol
_atom_site_symmetry_multiplicity
_atom_site_fract_x
_atom_site_fract_y
_atom_site_fract_z
_atom_site_occupancy
Ar1 Ar 1 0.15915 0.40915 0.12500 1.0000
Ar2 Ar 1 0.84085 0.59085 0.87500 1.0000
Ar3 Ar 1 0.34085 0.59085 0.62500 1.0000
Ar4 Ar 1 0.65915 0.40915 0.37500 1.0000
Ar5 Ar 1 0.84085 0.90915 0.37500 1.0000
Ar6 Ar 1 0.15915 0.09085 0.62500 1.0000
Ar7 Ar 1 0.65915 0.09085 0.87500 1.0000
Ar8 Ar 1 0.34085 0.90915 0.12500 1.0000
Ar9 Ar 1 0.12500 0.15915 0.40915 1.0000
Ar10 Ar 1 0.87500 0.84085 0.59085 1.0000
Ar11 Ar 1 0.62500 0.34085 0.59085 1.0000
Ar12 Ar 1 0.37500 0.65915 0.40915 1.0000
Ar13 Ar 1 0.37500 0.84085 0.90915 1.0000
Ar14 Ar 1 0.62500 0.15915 0.09085 1.0000
Ar15 Ar 1 0.87500 0.65915 0.09085 1.0000
Ar16 Ar 1 0.12500 0.34085 0.90915 1.0000
Ar17 Ar 1 0.40915 0.12500 0.15915 1.0000
Ar18 Ar 1 0.59085 0.87500 0.84085 1.0000
Ar19 Ar 1 0.59085 0.62500 0.34085 1.0000
Ar20 Ar 1 0.40915 0.37500 0.65915 1.0000
Ar21 Ar 1 0.90915 0.37500 0.84085 1.0000
Ar22 Ar 1 0.09085 0.62500 0.15915 1.0000
Ar23 Ar 1 0.09085 0.87500 0.65915 1.0000
Ar24 Ar 1 0.90915 0.12500 0.34085 1.0000
Ar25 Ar 1 0.65915 0.90915 0.62500 1.0000
Ar26 Ar 1 0.34085 0.09085 0.37500 1.0000
Ar27 Ar 1 0.84085 0.09085 0.12500 1.0000
Ar28 Ar 1 0.15915 0.90915 0.87500 1.0000
Ar29 Ar 1 0.34085 0.40915 0.87500 1.0000
Ar30 Ar 1 0.65915 0.59085 0.12500 1.0000
Ar31 Ar 1 0.15915 0.59085 0.37500 1.0000
Ar32 Ar 1 0.84085 0.40915 0.62500 1.0000
Ar33 Ar 1 0.62500 0.65915 0.90915 1.0000
Ar34 Ar 1 0.37500 0.34085 0.09085 1.0000
Ar35 Ar 1 0.12500 0.84085 0.09085 1.0000
Ar36 Ar 1 0.87500 0.15915 0.90915 1.0000
Ar37 Ar 1 0.87500 0.34085 0.40915 1.0000
Ar38 Ar 1 0.12500 0.65915 0.59085 1.0000
Ar39 Ar 1 0.37500 0.15915 0.59085 1.0000
Ar40 Ar 1 0.62500 0.84085 0.40915 1.0000
Ar41 Ar 1 0.90915 0.62500 0.65915 1.0000
Ar42 Ar 1 0.09085 0.37500 0.34085 1.0000
Ar43 Ar 1 0.09085 0.12500 0.84085 1.0000
Ar44 Ar 1 0.90915 0.87500 0.15915 1.0000
Ar45 Ar 1 0.40915 0.87500 0.34085 1.0000
Ar46 Ar 1 0.59085 0.12500 0.65915 1.0000
Ar47 Ar 1 0.59085 0.37500 0.15915 1.0000
Ar48 Ar 1 0.40915 0.62500 0.84085 1.0000
B1 B 1 0.10949 0.37701 0.22476 1.0000
B2 B 1 0.89052 0.62299 0.77524 1.0000
B3 B 1 0.39052 0.62299 0.72476 1.0000
B4 B 1 0.60948 0.37701 0.27524 1.0000
B5 B 1 0.89052 0.87701 0.27524 1.0000
B6 B 1 0.10949 0.12299 0.72476 1.0000
B7 B 1 0.60948 0.12299 0.77524 1.0000
B8 B 1 0.39052 0.87701 0.22476 1.0000
B9 B 1 0.22476 0.10949 0.37701 1.0000
B10 B 1 0.77524 0.89052 0.62299 1.0000
B11 B 1 0.72476 0.39052 0.62299 1.0000
B12 B 1 0.27524 0.60948 0.37701 1.0000
B13 B 1 0.27524 0.89052 0.87701 1.0000
B14 B 1 0.72476 0.10949 0.12299 1.0000
B15 B 1 0.77524 0.60948 0.12299 1.0000
B16 B 1 0.22476 0.39052 0.87701 1.0000
B17 B 1 0.37701 0.22476 0.10949 1.0000
B18 B 1 0.62299 0.77524 0.89052 1.0000
B19 B 1 0.62299 0.72476 0.39052 1.0000
B20 B 1 0.37701 0.27524 0.60948 1.0000
B21 B 1 0.87701 0.27524 0.89052 1.0000
B22 B 1 0.12299 0.72476 0.10949 1.0000
B23 B 1 0.12299 0.77524 0.60948 1.0000
B24 B 1 0.87701 0.22476 0.39052 1.0000
B25 B 1 0.12701 0.35948 0.02524 1.0000
B26 B 1 0.87299 0.64052 0.97476 1.0000
B27 B 1 0.37299 0.64052 0.52524 1.0000
B28 B 1 0.62701 0.35948 0.47476 1.0000
B29 B 1 0.62701 0.14051 0.97476 1.0000
B30 B 1 0.37299 0.85948 0.02524 1.0000
B31 B 1 0.87299 0.85948 0.47476 1.0000
B32 B 1 0.12701 0.14051 0.52524 1.0000
B33 B 1 0.85948 0.47476 0.87299 1.0000
B34 B 1 0.14051 0.52524 0.12701 1.0000
B35 B 1 0.14051 0.97476 0.62701 1.0000
B36 B 1 0.85948 0.02524 0.37299 1.0000
B37 B 1 0.64052 0.52524 0.37299 1.0000
B38 B 1 0.35948 0.47476 0.62701 1.0000
B39 B 1 0.35948 0.02524 0.12701 1.0000
B40 B 1 0.64052 0.97476 0.87299 1.0000
B41 B 1 0.97476 0.62701 0.14051 1.0000
B42 B 1 0.02524 0.37299 0.85948 1.0000
B43 B 1 0.47476 0.87299 0.85948 1.0000
B44 B 1 0.52524 0.12701 0.14051 1.0000
B45 B 1 0.02524 0.12701 0.35948 1.0000
B46 B 1 0.97476 0.87299 0.64052 1.0000
B47 B 1 0.52524 0.37299 0.64052 1.0000
B48 B 1 0.47476 0.62701 0.35948 1.0000
B49 B 1 0.60948 0.87701 0.72476 1.0000
B50 B 1 0.39052 0.12299 0.27524 1.0000
B51 B 1 0.89052 0.12299 0.22476 1.0000
B52 B 1 0.10949 0.87701 0.77524 1.0000
B53 B 1 0.39052 0.37701 0.77524 1.0000
B54 B 1 0.60948 0.62299 0.22476 1.0000
B55 B 1 0.10949 0.62299 0.27524 1.0000
B56 B 1 0.89052 0.37701 0.72476 1.0000
B57 B 1 0.72476 0.60948 0.87701 1.0000
B58 B 1 0.27524 0.39052 0.12299 1.0000
B59 B 1 0.22476 0.89052 0.12299 1.0000
B60 B 1 0.77524 0.10949 0.87701 1.0000
B61 B 1 0.77524 0.39052 0.37701 1.0000
B62 B 1 0.22476 0.60948 0.62299 1.0000
B63 B 1 0.27524 0.10949 0.62299 1.0000
B64 B 1 0.72476 0.89052 0.37701 1.0000
B65 B 1 0.87701 0.72476 0.60948 1.0000
B66 B 1 0.12299 0.27524 0.39052 1.0000
B67 B 1 0.12299 0.22476 0.89052 1.0000
B68 B 1 0.87701 0.77524 0.10949 1.0000
B69 B 1 0.37701 0.77524 0.39052 1.0000
B70 B 1 0.62299 0.22476 0.60948 1.0000
B71 B 1 0.62299 0.27524 0.10949 1.0000
B72 B 1 0.37701 0.72476 0.89052 1.0000
B73 B 1 0.62701 0.85948 0.52524 1.0000
B74 B 1 0.37299 0.14051 0.47476 1.0000
B75 B 1 0.87299 0.14051 0.02524 1.0000
B76 B 1 0.12701 0.85948 0.97476 1.0000
B77 B 1 0.12701 0.64052 0.47476 1.0000
B78 B 1 0.87299 0.35948 0.52524 1.0000
B79 B 1 0.37299 0.35948 0.97476 1.0000
B80 B 1 0.62701 0.64052 0.02524 1.0000
B81 B 1 0.35948 0.97476 0.37299 1.0000
B82 B 1 0.64052 0.02524 0.62701 1.0000
B83 B 1 0.64052 0.47476 0.12701 1.0000
B84 B 1 0.35948 0.52524 0.87299 1.0000
B85 B 1 0.14051 0.02524 0.87299 1.0000
B86 B 1 0.85948 0.97476 0.12701 1.0000
B87 B 1 0.85948 0.52524 0.62701 1.0000
B88 B 1 0.14051 0.47476 0.37299 1.0000
B89 B 1 0.47476 0.12701 0.64052 1.0000
B90 B 1 0.52524 0.87299 0.35948 1.0000
B91 B 1 0.97476 0.37299 0.35948 1.0000
B92 B 1 0.02524 0.62701 0.64052 1.0000
B93 B 1 0.52524 0.62701 0.85948 1.0000
B94 B 1 0.47476 0.37299 0.14051 1.0000
B95 B 1 0.02524 0.87299 0.14051 1.0000
B96 B 1 0.97476 0.12701 0.85948 1.0000
#End of data_11_GUPDOL

data_12_GUPDEB
_chemical_name_common		'CdIF9'
_chemical_formula_structural	'Cd(nim)2'
_chemical_formula_sum		'Ar1 B2'
_citation_special_details	'original source structure doi: 10.1002/chem.200902738'
;
File: GUPDEB.cif.
;
_cell_length_a			9.27308
_cell_length_b			9.27308
_cell_length_c			9.27308
_cell_angle_alpha		90.00000
_cell_angle_beta		90.00000
_cell_angle_gamma		90.00000
_cell_volume			797.39225
_cell_formula_units_Z		48
_symmetry_space_group_name_H-M	'P 1'
_symmetry_Int_Tables_number	1
loop_
_symmetry_equiv_pos_site_id
_symmetry_equiv_pos_as_xyz
1 x,y,z
loop_
_atom_site_label
_atom_site_type_symbol
_atom_site_symmetry_multiplicity
_atom_site_fract_x
_atom_site_fract_y
_atom_site_fract_z
_atom_site_occupancy
Ar1 Ar 1 0.39518 0.10482 0.25000 1.0000
Ar2 Ar 1 0.60482 0.89518 0.75000 1.0000
Ar3 Ar 1 0.60482 0.89518 0.25000 1.0000
Ar4 Ar 1 0.39518 0.10482 0.75000 1.0000
Ar5 Ar 1 0.60482 0.10482 0.75000 1.0000
Ar6 Ar 1 0.39518 0.89518 0.25000 1.0000
Ar7 Ar 1 0.39518 0.89518 0.75000 1.0000
Ar8 Ar 1 0.60482 0.10482 0.25000 1.0000
Ar9 Ar 1 0.25000 0.39518 0.10482 1.0000
Ar10 Ar 1 0.75000 0.60482 0.89518 1.0000
Ar11 Ar 1 0.25000 0.60482 0.89518 1.0000
Ar12 Ar 1 0.75000 0.39518 0.10482 1.0000
Ar13 Ar 1 0.75000 0.60482 0.10482 1.0000
Ar14 Ar 1 0.25000 0.39518 0.89518 1.0000
Ar15 Ar 1 0.75000 0.39518 0.89518 1.0000
Ar16 Ar 1 0.25000 0.60482 0.10482 1.0000
Ar17 Ar 1 0.10482 0.25000 0.39518 1.0000
Ar18 Ar 1 0.89518 0.75000 0.60482 1.0000
Ar19 Ar 1 0.89518 0.25000 0.60482 1.0000
Ar20 Ar 1 0.10482 0.75000 0.39518 1.0000
Ar21 Ar 1 0.10482 0.75000 0.60482 1.0000
Ar22 Ar 1 0.89518 0.25000 0.39518 1.0000
Ar23 Ar 1 0.89518 0.75000 0.39518 1.0000
Ar24 Ar 1 0.10482 0.25000 0.60482 1.0000
Ar25 Ar 1 0.10482 0.39518 0.75000 1.0000
Ar26 Ar 1 0.89518 0.60482 0.25000 1.0000
Ar27 Ar 1 0.89518 0.60482 0.75000 1.0000
Ar28 Ar 1 0.10482 0.39518 0.25000 1.0000
Ar29 Ar 1 0.10482 0.60482 0.25000 1.0000
Ar30 Ar 1 0.89518 0.39518 0.75000 1.0000
Ar31 Ar 1 0.89518 0.39518 0.25000 1.0000
Ar32 Ar 1 0.10482 0.60482 0.75000 1.0000
Ar33 Ar 1 0.39518 0.25000 0.89518 1.0000
Ar34 Ar 1 0.60482 0.75000 0.10482 1.0000
Ar35 Ar 1 0.60482 0.25000 0.10482 1.0000
Ar36 Ar 1 0.39518 0.75000 0.89518 1.0000
Ar37 Ar 1 0.60482 0.75000 0.89518 1.0000
Ar38 Ar 1 0.39518 0.25000 0.10482 1.0000
Ar39 Ar 1 0.39518 0.75000 0.10482 1.0000
Ar40 Ar 1 0.60482 0.25000 0.89518 1.0000
Ar41 Ar 1 0.25000 0.10482 0.60482 1.0000
Ar42 Ar 1 0.75000 0.89518 0.39518 1.0000
Ar43 Ar 1 0.25000 0.89518 0.39518 1.0000
Ar44 Ar 1 0.75000 0.10482 0.60482 1.0000
Ar45 Ar 1 0.75000 0.10482 0.39518 1.0000
Ar46 Ar 1 0.25000 0.89518 0.60482 1.0000
Ar47 Ar 1 0.75000 0.89518 0.60482 1.0000
Ar48 Ar 1 0.25000 0.10482 0.39518 1.0000
B1 B 1 0.39430 0.00000 0.22010 1.0000
B2 B 1 0.60570 0.00000 0.77990 1.0000
B3 B 1 0.60570 0.00000 0.22010 1.0000
B4 B 1 0.39430 0.00000 0.77990 1.0000
B5 B 1 0.22010 0.39430 0.00000 1.0000
B6 B 1 0.77990 0.60570 0.00000 1.0000
B7 B 1 0.22010 0.60570 0.00000 1.0000
B8 B 1 0.77990 0.39430 0.00000 1.0000
B9 B 1 0.00000 0.22010 0.39430 1.0000
B10 B 1 0.00000 0.77990 0.60570 1.0000
B11 B 1 0.00000 0.22010 0.60570 1.0000
B12 B 1 0.00000 0.77990 0.39430 1.0000
B13 B 1 0.00000 0.39430 0.77990 1.0000
B14 B 1 0.00000 0.60570 0.22010 1.0000
B15 B 1 0.00000 0.60570 0.77990 1.0000
B16 B 1 0.00000 0.39430 0.22010 1.0000
B17 B 1 0.39430 0.22010 0.00000 1.0000
B18 B 1 0.60570 0.77990 0.00000 1.0000
B19 B 1 0.60570 0.22010 0.00000 1.0000
B20 B 1 0.39430 0.77990 0.00000 1.0000
B21 B 1 0.22010 0.00000 0.60570 1.0000
B22 B 1 0.77990 0.00000 0.39430 1.0000
B23 B 1 0.22010 0.00000 0.39430 1.0000
B24 B 1 0.77990 0.00000 0.60570 1.0000
B25 B 1 0.89430 0.50000 0.72010 1.0000
B26 B 1 0.10570 0.50000 0.27990 1.0000
B27 B 1 0.10570 0.50000 0.72010 1.0000
B28 B 1 0.89430 0.50000 0.27990 1.0000
B29 B 1 0.72010 0.89430 0.50000 1.0000
B30 B 1 0.27990 0.10570 0.50000 1.0000
B31 B 1 0.72010 0.10570 0.50000 1.0000
B32 B 1 0.27990 0.89430 0.50000 1.0000
B33 B 1 0.50000 0.72010 0.89430 1.0000
B34 B 1 0.50000 0.27990 0.10570 1.0000
B35 B 1 0.50000 0.72010 0.10570 1.0000
B36 B 1 0.50000 0.27990 0.89430 1.0000
B37 B 1 0.50000 0.89430 0.27990 1.0000
B38 B 1 0.50000 0.10570 0.72010 1.0000
B39 B 1 0.50000 0.10570 0.27990 1.0000
B40 B 1 0.50000 0.89430 0.72010 1.0000
B41 B 1 0.89430 0.72010 0.50000 1.0000
B42 B 1 0.10570 0.27990 0.50000 1.0000
B43 B 1 0.10570 0.72010 0.50000 1.0000
B44 B 1 0.89430 0.27990 0.50000 1.0000
B45 B 1 0.72010 0.50000 0.10570 1.0000
B46 B 1 0.27990 0.50000 0.89430 1.0000
B47 B 1 0.72010 0.50000 0.89430 1.0000
B48 B 1 0.27990 0.50000 0.10570 1.0000
B49 B 1 0.36690 0.16535 0.16535 1.0000
B50 B 1 0.63310 0.83465 0.83465 1.0000
B51 B 1 0.63310 0.83465 0.16535 1.0000
B52 B 1 0.36690 0.16535 0.83465 1.0000
B53 B 1 0.63310 0.16535 0.83465 1.0000
B54 B 1 0.36690 0.83465 0.16535 1.0000
B55 B 1 0.36690 0.83465 0.83465 1.0000
B56 B 1 0.63310 0.16535 0.16535 1.0000
B57 B 1 0.16535 0.36690 0.16535 1.0000
B58 B 1 0.83465 0.63310 0.83465 1.0000
B59 B 1 0.16535 0.63310 0.83465 1.0000
B60 B 1 0.83465 0.36690 0.16535 1.0000
B61 B 1 0.83465 0.63310 0.16535 1.0000
B62 B 1 0.16535 0.36690 0.83465 1.0000
B63 B 1 0.83465 0.36690 0.83465 1.0000
B64 B 1 0.16535 0.63310 0.16535 1.0000
B65 B 1 0.16535 0.16535 0.36690 1.0000
B66 B 1 0.83465 0.83465 0.63310 1.0000
B67 B 1 0.83465 0.16535 0.63310 1.0000
B68 B 1 0.16535 0.83465 0.36690 1.0000
B69 B 1 0.16535 0.83465 0.63310 1.0000
B70 B 1 0.83465 0.16535 0.36690 1.0000
B71 B 1 0.83465 0.83465 0.36690 1.0000
B72 B 1 0.16535 0.16535 0.63310 1.0000
B73 B 1 0.86690 0.66535 0.66535 1.0000
B74 B 1 0.13310 0.33465 0.33465 1.0000
B75 B 1 0.13310 0.33465 0.66535 1.0000
B76 B 1 0.86690 0.66535 0.33465 1.0000
B77 B 1 0.13310 0.66535 0.33465 1.0000
B78 B 1 0.86690 0.33465 0.66535 1.0000
B79 B 1 0.86690 0.33465 0.33465 1.0000
B80 B 1 0.13310 0.66535 0.66535 1.0000
B81 B 1 0.66535 0.86690 0.66535 1.0000
B82 B 1 0.33465 0.13310 0.33465 1.0000
B83 B 1 0.66535 0.13310 0.33465 1.0000
B84 B 1 0.33465 0.86690 0.66535 1.0000
B85 B 1 0.33465 0.13310 0.66535 1.0000
B86 B 1 0.66535 0.86690 0.33465 1.0000
B87 B 1 0.33465 0.86690 0.33465 1.0000
B88 B 1 0.66535 0.13310 0.66535 1.0000
B89 B 1 0.66535 0.66535 0.86690 1.0000
B90 B 1 0.33465 0.33465 0.13310 1.0000
B91 B 1 0.33465 0.66535 0.13310 1.0000
B92 B 1 0.66535 0.33465 0.86690 1.0000
B93 B 1 0.66535 0.33465 0.13310 1.0000
B94 B 1 0.33465 0.66535 0.86690 1.0000
B95 B 1 0.33465 0.33465 0.86690 1.0000
B96 B 1 0.66535 0.66535 0.13310 1.0000
#End of data_12_GUPDEB

