data_1_QOSYED
_chemical_name_common		'TIF5Co '
_chemical_formula_structural	'Co(Im)(dmbIm)'
_chemical_formula_sum		'Ar1 B2'
_citation_special_details	'original source structure doi: 10.1021/cm802400f'
;
File: QOSYED.cif.
;
_cell_length_a			5.47536
_cell_length_b			5.47536
_cell_length_c			7.05133
_cell_angle_alpha		90.00000
_cell_angle_beta		90.00000
_cell_angle_gamma		90.00000
_cell_volume			211.39539
_cell_formula_units_Z		16
_symmetry_space_group_name_H-M	'P 1'
_symmetry_Int_Tables_number	1
loop_
_symmetry_equiv_pos_site_id
_symmetry_equiv_pos_as_xyz
1 x,y,z
loop_
_atom_site_label
_atom_site_type_symbol
_atom_site_symmetry_multiplicity
_atom_site_fract_x
_atom_site_fract_y
_atom_site_fract_z
_atom_site_occupancy
Ar1 Ar 1 0.79887 0.09104 0.60703 1.0000
Ar2 Ar 1 0.20113 0.90896 0.39297 1.0000
Ar3 Ar 1 0.70113 0.90896 0.10703 1.0000
Ar4 Ar 1 0.29887 0.09104 0.89297 1.0000
Ar5 Ar 1 0.65896 0.04887 0.85703 1.0000
Ar6 Ar 1 0.34104 0.95113 0.14297 1.0000
Ar7 Ar 1 0.84104 0.95113 0.35703 1.0000
Ar8 Ar 1 0.15896 0.04887 0.64297 1.0000
Ar9 Ar 1 0.29887 0.59104 0.10703 1.0000
Ar10 Ar 1 0.70113 0.40896 0.89297 1.0000
Ar11 Ar 1 0.20113 0.40896 0.60703 1.0000
Ar12 Ar 1 0.79887 0.59104 0.39297 1.0000
Ar13 Ar 1 0.15896 0.54887 0.35703 1.0000
Ar14 Ar 1 0.84104 0.45113 0.64297 1.0000
Ar15 Ar 1 0.34104 0.45113 0.85703 1.0000
Ar16 Ar 1 0.65896 0.54887 0.14297 1.0000
B1 B 1 0.71195 0.02785 0.72170 1.0000
B2 B 1 0.28805 0.97215 0.27830 1.0000
B3 B 1 0.78805 0.97215 0.22170 1.0000
B4 B 1 0.21195 0.02785 0.77830 1.0000
B5 B 1 0.72215 0.96195 0.97170 1.0000
B6 B 1 0.27785 0.03805 0.02830 1.0000
B7 B 1 0.77785 0.03805 0.47170 1.0000
B8 B 1 0.22215 0.96195 0.52830 1.0000
B9 B 1 0.21195 0.52785 0.22170 1.0000
B10 B 1 0.78805 0.47215 0.77830 1.0000
B11 B 1 0.28805 0.47215 0.72170 1.0000
B12 B 1 0.71195 0.52785 0.27830 1.0000
B13 B 1 0.22215 0.46195 0.47170 1.0000
B14 B 1 0.77785 0.53805 0.52830 1.0000
B15 B 1 0.27785 0.53805 0.97170 1.0000
B16 B 1 0.72215 0.46195 0.02830 1.0000
B17 B 1 0.97455 0.04205 0.63085 1.0000
B18 B 1 0.02545 0.95795 0.36915 1.0000
B19 B 1 0.52545 0.95795 0.13085 1.0000
B20 B 1 0.47455 0.04205 0.86915 1.0000
B21 B 1 0.70795 0.22455 0.88085 1.0000
B22 B 1 0.29205 0.77545 0.11915 1.0000
B23 B 1 0.79205 0.77545 0.38085 1.0000
B24 B 1 0.20795 0.22455 0.61915 1.0000
B25 B 1 0.47455 0.54205 0.13085 1.0000
B26 B 1 0.52545 0.45795 0.86915 1.0000
B27 B 1 0.02545 0.45795 0.63085 1.0000
B28 B 1 0.97455 0.54205 0.36915 1.0000
B29 B 1 0.20795 0.72455 0.38085 1.0000
B30 B 1 0.79205 0.27545 0.61915 1.0000
B31 B 1 0.29205 0.27545 0.88085 1.0000
B32 B 1 0.70795 0.72455 0.11915 1.0000
#End of data_1_QOSYED

data_2_QOSYAZ
_chemical_name_common		'TIF4 '
_chemical_formula_structural	'Zn(Im)1.5(mbIm)0.5'
_chemical_formula_sum		'Ar1 B2'
_citation_special_details	'original source structure doi: 10.1021/cm802400f'
;
File: QOSYAZ.cif.
;
_cell_length_a			5.14388
_cell_length_b			5.37321
_cell_length_c			5.96667
_cell_angle_alpha		90.00000
_cell_angle_beta		90.00000
_cell_angle_gamma		90.00000
_cell_volume			164.91379
_cell_formula_units_Z		16
_symmetry_space_group_name_H-M	'P 1'
_symmetry_Int_Tables_number	1
loop_
_symmetry_equiv_pos_site_id
_symmetry_equiv_pos_as_xyz
1 x,y,z
loop_
_atom_site_label
_atom_site_type_symbol
_atom_site_symmetry_multiplicity
_atom_site_fract_x
_atom_site_fract_y
_atom_site_fract_z
_atom_site_occupancy
Ar1 Ar 1 0.31050 0.14567 0.60125 1.0000
Ar2 Ar 1 0.68950 0.85433 0.39875 1.0000
Ar3 Ar 1 0.18950 0.85433 0.10125 1.0000
Ar4 Ar 1 0.81050 0.14567 0.89875 1.0000
Ar5 Ar 1 0.68950 0.64567 0.89875 1.0000
Ar6 Ar 1 0.31050 0.35433 0.10125 1.0000
Ar7 Ar 1 0.81050 0.35433 0.39875 1.0000
Ar8 Ar 1 0.18950 0.64567 0.60125 1.0000
Ar9 Ar 1 0.00486 0.34090 0.68202 1.0000
Ar10 Ar 1 0.99514 0.65910 0.31798 1.0000
Ar11 Ar 1 0.49514 0.65910 0.18202 1.0000
Ar12 Ar 1 0.50486 0.34090 0.81798 1.0000
Ar13 Ar 1 0.99514 0.84090 0.81798 1.0000
Ar14 Ar 1 0.00486 0.15910 0.18202 1.0000
Ar15 Ar 1 0.50486 0.15910 0.31798 1.0000
Ar16 Ar 1 0.49514 0.84090 0.68202 1.0000
B1 B 1 0.12970 0.20840 0.63085 1.0000
B2 B 1 0.87030 0.79160 0.36915 1.0000
B3 B 1 0.37030 0.79160 0.13085 1.0000
B4 B 1 0.62970 0.20840 0.86915 1.0000
B5 B 1 0.87030 0.70840 0.86915 1.0000
B6 B 1 0.12970 0.29160 0.13085 1.0000
B7 B 1 0.62970 0.29160 0.36915 1.0000
B8 B 1 0.37030 0.70840 0.63085 1.0000
B9 B 1 0.37575 0.13510 0.44300 1.0000
B10 B 1 0.62425 0.86490 0.55700 1.0000
B11 B 1 0.12425 0.86490 0.94300 1.0000
B12 B 1 0.87575 0.13510 0.05700 1.0000
B13 B 1 0.62425 0.63510 0.05700 1.0000
B14 B 1 0.37575 0.36490 0.94300 1.0000
B15 B 1 0.87575 0.36490 0.55700 1.0000
B16 B 1 0.12425 0.63510 0.44300 1.0000
B17 B 1 0.37880 0.99045 0.67415 1.0000
B18 B 1 0.62120 0.00955 0.32585 1.0000
B19 B 1 0.12120 0.00955 0.17415 1.0000
B20 B 1 0.87880 0.99045 0.82585 1.0000
B21 B 1 0.62120 0.49045 0.82585 1.0000
B22 B 1 0.37880 0.50955 0.17415 1.0000
B23 B 1 0.87880 0.50955 0.32585 1.0000
B24 B 1 0.12120 0.49045 0.67415 1.0000
B25 B 1 0.91180 0.27690 0.81815 1.0000
B26 B 1 0.08820 0.72310 0.18185 1.0000
B27 B 1 0.58820 0.72310 0.31815 1.0000
B28 B 1 0.41180 0.27690 0.68185 1.0000
B29 B 1 0.08820 0.77690 0.68185 1.0000
B30 B 1 0.91180 0.22310 0.31815 1.0000
B31 B 1 0.41180 0.22310 0.18185 1.0000
B32 B 1 0.58820 0.77690 0.81815 1.0000
#End of data_2_QOSYAZ

data_3_QOGPIM
_chemical_name_common		'TIF1Zn '
_chemical_formula_structural	'Zn(dmbIm)2'
_chemical_formula_sum		'Ar1 B2'
_citation_special_details	'original source structure doi: 10.1002/chem.200800736'
;
File: QOGPIM.cif.
;
_cell_length_a			10.35617
_cell_length_b			10.35617
_cell_length_c			11.32908
_cell_angle_alpha		90.00000
_cell_angle_beta		90.00000
_cell_angle_gamma		90.00000
_cell_volume			1215.04709
_cell_formula_units_Z		52
_symmetry_space_group_name_H-M	'P 1'
_symmetry_Int_Tables_number	1
loop_
_symmetry_equiv_pos_site_id
_symmetry_equiv_pos_as_xyz
1 x,y,z
loop_
_atom_site_label
_atom_site_type_symbol
_atom_site_symmetry_multiplicity
_atom_site_fract_x
_atom_site_fract_y
_atom_site_fract_z
_atom_site_occupancy
Ar1 Ar 1 0.29172 0.15594 0.21571 1.0000
Ar2 Ar 1 0.70828 0.84406 0.78429 1.0000
Ar3 Ar 1 0.70828 0.84406 0.21571 1.0000
Ar4 Ar 1 0.29172 0.15594 0.78429 1.0000
Ar5 Ar 1 0.34406 0.79172 0.71571 1.0000
Ar6 Ar 1 0.65594 0.20828 0.28429 1.0000
Ar7 Ar 1 0.65594 0.20828 0.71571 1.0000
Ar8 Ar 1 0.34406 0.79172 0.28429 1.0000
Ar9 Ar 1 0.20828 0.65594 0.28429 1.0000
Ar10 Ar 1 0.79172 0.34406 0.71571 1.0000
Ar11 Ar 1 0.79172 0.34406 0.28429 1.0000
Ar12 Ar 1 0.20828 0.65594 0.71571 1.0000
Ar13 Ar 1 0.15594 0.29172 0.78429 1.0000
Ar14 Ar 1 0.84406 0.70828 0.21571 1.0000
Ar15 Ar 1 0.84406 0.70828 0.78429 1.0000
Ar16 Ar 1 0.15594 0.29172 0.21571 1.0000
Ar17 Ar 1 0.47942 0.18601 0.22450 1.0000
Ar18 Ar 1 0.52058 0.81399 0.77550 1.0000
Ar19 Ar 1 0.52058 0.81399 0.22450 1.0000
Ar20 Ar 1 0.47942 0.18601 0.77550 1.0000
Ar21 Ar 1 0.31399 0.97942 0.72450 1.0000
Ar22 Ar 1 0.68601 0.02058 0.27550 1.0000
Ar23 Ar 1 0.68601 0.02058 0.72450 1.0000
Ar24 Ar 1 0.31399 0.97942 0.27550 1.0000
Ar25 Ar 1 0.02058 0.68601 0.27550 1.0000
Ar26 Ar 1 0.97942 0.31399 0.72450 1.0000
Ar27 Ar 1 0.97942 0.31399 0.27550 1.0000
Ar28 Ar 1 0.02058 0.68601 0.72450 1.0000
Ar29 Ar 1 0.18601 0.47942 0.77550 1.0000
Ar30 Ar 1 0.81399 0.52058 0.22450 1.0000
Ar31 Ar 1 0.81399 0.52058 0.77550 1.0000
Ar32 Ar 1 0.18601 0.47942 0.22450 1.0000
Ar33 Ar 1 0.38369 0.24752 0.08733 1.0000
Ar34 Ar 1 0.61631 0.75248 0.91267 1.0000
Ar35 Ar 1 0.61631 0.75248 0.08733 1.0000
Ar36 Ar 1 0.38369 0.24752 0.91267 1.0000
Ar37 Ar 1 0.25248 0.88369 0.58733 1.0000
Ar38 Ar 1 0.74752 0.11631 0.41267 1.0000
Ar39 Ar 1 0.74752 0.11631 0.58733 1.0000
Ar40 Ar 1 0.25248 0.88369 0.41267 1.0000
Ar41 Ar 1 0.11631 0.74752 0.41267 1.0000
Ar42 Ar 1 0.88369 0.25248 0.58733 1.0000
Ar43 Ar 1 0.88369 0.25248 0.41267 1.0000
Ar44 Ar 1 0.11631 0.74752 0.58733 1.0000
Ar45 Ar 1 0.24752 0.38369 0.91267 1.0000
Ar46 Ar 1 0.75248 0.61631 0.08733 1.0000
Ar47 Ar 1 0.75248 0.61631 0.91267 1.0000
Ar48 Ar 1 0.24752 0.38369 0.08733 1.0000
Ar49 Ar 1 0.50000 0.00000 0.25000 1.0000
Ar50 Ar 1 0.50000 0.00000 0.75000 1.0000
Ar51 Ar 1 0.00000 0.50000 0.25000 1.0000
Ar52 Ar 1 0.00000 0.50000 0.75000 1.0000
B1 B 1 0.38390 0.17405 0.24720 1.0000
B2 B 1 0.61610 0.82595 0.75280 1.0000
B3 B 1 0.61610 0.82595 0.24720 1.0000
B4 B 1 0.38390 0.17405 0.75280 1.0000
B5 B 1 0.32595 0.88390 0.74720 1.0000
B6 B 1 0.67405 0.11610 0.25280 1.0000
B7 B 1 0.67405 0.11610 0.74720 1.0000
B8 B 1 0.32595 0.88390 0.25280 1.0000
B9 B 1 0.11610 0.67405 0.25280 1.0000
B10 B 1 0.88390 0.32595 0.74720 1.0000
B11 B 1 0.88390 0.32595 0.25280 1.0000
B12 B 1 0.11610 0.67405 0.74720 1.0000
B13 B 1 0.17405 0.38390 0.75280 1.0000
B14 B 1 0.82595 0.61610 0.24720 1.0000
B15 B 1 0.82595 0.61610 0.75280 1.0000
B16 B 1 0.17405 0.38390 0.24720 1.0000
B17 B 1 0.45275 0.23350 0.14890 1.0000
B18 B 1 0.54725 0.76650 0.85110 1.0000
B19 B 1 0.54725 0.76650 0.14890 1.0000
B20 B 1 0.45275 0.23350 0.85110 1.0000
B21 B 1 0.26650 0.95275 0.64890 1.0000
B22 B 1 0.73350 0.04725 0.35110 1.0000
B23 B 1 0.73350 0.04725 0.64890 1.0000
B24 B 1 0.26650 0.95275 0.35110 1.0000
B25 B 1 0.04725 0.73350 0.35110 1.0000
B26 B 1 0.95275 0.26650 0.64890 1.0000
B27 B 1 0.95275 0.26650 0.35110 1.0000
B28 B 1 0.04725 0.73350 0.64890 1.0000
B29 B 1 0.23350 0.45275 0.85110 1.0000
B30 B 1 0.76650 0.54725 0.14890 1.0000
B31 B 1 0.76650 0.54725 0.85110 1.0000
B32 B 1 0.23350 0.45275 0.14890 1.0000
B33 B 1 0.32325 0.18745 0.13555 1.0000
B34 B 1 0.67675 0.81255 0.86445 1.0000
B35 B 1 0.67675 0.81255 0.13555 1.0000
B36 B 1 0.32325 0.18745 0.86445 1.0000
B37 B 1 0.31255 0.82325 0.63555 1.0000
B38 B 1 0.68745 0.17675 0.36445 1.0000
B39 B 1 0.68745 0.17675 0.63555 1.0000
B40 B 1 0.31255 0.82325 0.36445 1.0000
B41 B 1 0.17675 0.68745 0.36445 1.0000
B42 B 1 0.82325 0.31255 0.63555 1.0000
B43 B 1 0.82325 0.31255 0.36445 1.0000
B44 B 1 0.17675 0.68745 0.63555 1.0000
B45 B 1 0.18745 0.32325 0.86445 1.0000
B46 B 1 0.81255 0.67675 0.13555 1.0000
B47 B 1 0.81255 0.67675 0.86445 1.0000
B48 B 1 0.18745 0.32325 0.13555 1.0000
B49 B 1 0.21475 0.21475 0.23520 1.0000
B50 B 1 0.78525 0.78525 0.76480 1.0000
B51 B 1 0.78525 0.78525 0.23520 1.0000
B52 B 1 0.21475 0.21475 0.76480 1.0000
B53 B 1 0.28525 0.71475 0.73520 1.0000
B54 B 1 0.71475 0.28525 0.26480 1.0000
B55 B 1 0.71475 0.28525 0.73520 1.0000
B56 B 1 0.28525 0.71475 0.26480 1.0000
B57 B 1 0.40480 0.23130 0.00000 1.0000
B58 B 1 0.59520 0.76870 0.00000 1.0000
B59 B 1 0.26870 0.90480 0.50000 1.0000
B60 B 1 0.73130 0.09520 0.50000 1.0000
B61 B 1 0.09520 0.73130 0.50000 1.0000
B62 B 1 0.90480 0.26870 0.50000 1.0000
B63 B 1 0.23130 0.40480 0.00000 1.0000
B64 B 1 0.76870 0.59520 0.00000 1.0000
B65 B 1 0.50070 0.08960 0.21710 1.0000
B66 B 1 0.49930 0.91040 0.78290 1.0000
B67 B 1 0.49930 0.91040 0.21710 1.0000
B68 B 1 0.50070 0.08960 0.78290 1.0000
B69 B 1 0.41040 0.00070 0.71710 1.0000
B70 B 1 0.58960 0.99930 0.28290 1.0000
B71 B 1 0.58960 0.99930 0.71710 1.0000
B72 B 1 0.41040 0.00070 0.28290 1.0000
B73 B 1 0.99930 0.58960 0.28290 1.0000
B74 B 1 0.00070 0.41040 0.71710 1.0000
B75 B 1 0.00070 0.41040 0.28290 1.0000
B76 B 1 0.99930 0.58960 0.71710 1.0000
B77 B 1 0.08960 0.50070 0.78290 1.0000
B78 B 1 0.91040 0.49930 0.21710 1.0000
B79 B 1 0.91040 0.49930 0.78290 1.0000
B80 B 1 0.08960 0.50070 0.21710 1.0000
B81 B 1 0.32987 0.32987 0.08935 1.0000
B82 B 1 0.67013 0.67013 0.91065 1.0000
B83 B 1 0.67013 0.67013 0.08935 1.0000
B84 B 1 0.32987 0.32987 0.91065 1.0000
B85 B 1 0.17012 0.82987 0.58935 1.0000
B86 B 1 0.82987 0.17012 0.41065 1.0000
B87 B 1 0.82987 0.17012 0.58935 1.0000
B88 B 1 0.17012 0.82987 0.41065 1.0000
B89 B 1 0.56025 0.21540 0.26760 1.0000
B90 B 1 0.43975 0.78460 0.73240 1.0000
B91 B 1 0.43975 0.78460 0.26760 1.0000
B92 B 1 0.56025 0.21540 0.73240 1.0000
B93 B 1 0.28460 0.06025 0.76760 1.0000
B94 B 1 0.71540 0.93975 0.23240 1.0000
B95 B 1 0.71540 0.93975 0.76760 1.0000
B96 B 1 0.28460 0.06025 0.23240 1.0000
B97 B 1 0.93975 0.71540 0.23240 1.0000
B98 B 1 0.06025 0.28460 0.76760 1.0000
B99 B 1 0.06025 0.28460 0.23240 1.0000
B100 B 1 0.93975 0.71540 0.76760 1.0000
B101 B 1 0.21540 0.56025 0.73240 1.0000
B102 B 1 0.78460 0.43975 0.26760 1.0000
B103 B 1 0.78460 0.43975 0.73240 1.0000
B104 B 1 0.21540 0.56025 0.26760 1.0000
#End of data_3_QOGPIM

data_4_QOSYIH
_chemical_name_common		'TIF5Zn '
_chemical_formula_structural	'Zn(Im)(dmbIm)'
_chemical_formula_sum		'Ar1 B2'
_citation_special_details	'original source structure doi: 10.1021/cm802400f'
;
File: QOSYIH.cif.
;
_cell_length_a			5.52373
_cell_length_b			5.52373
_cell_length_c			7.02169
_cell_angle_alpha		90.00000
_cell_angle_beta		90.00000
_cell_angle_gamma		90.00000
_cell_volume			214.24285
_cell_formula_units_Z		16
_symmetry_space_group_name_H-M	'P 1'
_symmetry_Int_Tables_number	1
loop_
_symmetry_equiv_pos_site_id
_symmetry_equiv_pos_as_xyz
1 x,y,z
loop_
_atom_site_label
_atom_site_type_symbol
_atom_site_symmetry_multiplicity
_atom_site_fract_x
_atom_site_fract_y
_atom_site_fract_z
_atom_site_occupancy
Ar1 Ar 1 0.19883 0.40812 0.10773 1.0000
Ar2 Ar 1 0.80117 0.59188 0.89227 1.0000
Ar3 Ar 1 0.30117 0.59188 0.60773 1.0000
Ar4 Ar 1 0.69883 0.40812 0.39227 1.0000
Ar5 Ar 1 0.34188 0.44883 0.35773 1.0000
Ar6 Ar 1 0.65812 0.55117 0.64227 1.0000
Ar7 Ar 1 0.15812 0.55117 0.85773 1.0000
Ar8 Ar 1 0.84188 0.44883 0.14227 1.0000
Ar9 Ar 1 0.69883 0.90812 0.60773 1.0000
Ar10 Ar 1 0.30117 0.09188 0.39227 1.0000
Ar11 Ar 1 0.80117 0.09188 0.10773 1.0000
Ar12 Ar 1 0.19883 0.90812 0.89227 1.0000
Ar13 Ar 1 0.84188 0.94883 0.85773 1.0000
Ar14 Ar 1 0.15812 0.05117 0.14227 1.0000
Ar15 Ar 1 0.65812 0.05117 0.35773 1.0000
Ar16 Ar 1 0.34188 0.94883 0.64227 1.0000
B1 B 1 0.28560 0.46910 0.22315 1.0000
B2 B 1 0.71440 0.53090 0.77685 1.0000
B3 B 1 0.21440 0.53090 0.72315 1.0000
B4 B 1 0.78560 0.46910 0.27685 1.0000
B5 B 1 0.28090 0.53560 0.47315 1.0000
B6 B 1 0.71910 0.46440 0.52685 1.0000
B7 B 1 0.21910 0.46440 0.97315 1.0000
B8 B 1 0.78090 0.53560 0.02685 1.0000
B9 B 1 0.78560 0.96910 0.72315 1.0000
B10 B 1 0.21440 0.03090 0.27685 1.0000
B11 B 1 0.71440 0.03090 0.22315 1.0000
B12 B 1 0.28560 0.96910 0.77685 1.0000
B13 B 1 0.78090 0.03560 0.97315 1.0000
B14 B 1 0.21910 0.96440 0.02685 1.0000
B15 B 1 0.71910 0.96440 0.47315 1.0000
B16 B 1 0.28090 0.03560 0.52685 1.0000
B17 B 1 0.20410 0.22560 0.11680 1.0000
B18 B 1 0.79590 0.77440 0.88320 1.0000
B19 B 1 0.29590 0.77440 0.61680 1.0000
B20 B 1 0.70410 0.22560 0.38320 1.0000
B21 B 1 0.52440 0.45410 0.36680 1.0000
B22 B 1 0.47560 0.54590 0.63320 1.0000
B23 B 1 0.97560 0.54590 0.86680 1.0000
B24 B 1 0.02440 0.45410 0.13320 1.0000
B25 B 1 0.70410 0.72560 0.61680 1.0000
B26 B 1 0.29590 0.27440 0.38320 1.0000
B27 B 1 0.79590 0.27440 0.11680 1.0000
B28 B 1 0.20410 0.72560 0.88320 1.0000
B29 B 1 0.02440 0.95410 0.86680 1.0000
B30 B 1 0.97560 0.04590 0.13320 1.0000
B31 B 1 0.47560 0.04590 0.36680 1.0000
B32 B 1 0.52440 0.95410 0.63320 1.0000
#End of data_4_QOSYIH

data_5_QOSXOM
_chemical_name_common		'TIF2 '
_chemical_formula_structural	'Zn(Im)1.10(mbIm)0.9'
_chemical_formula_sum		'Ar1 B2'
_citation_special_details	'original source structure doi: 10.1021/cm802400f'
;
File: QOSXOM.cif.
;
_cell_length_a			5.91920
_cell_length_b			16.13230
_cell_length_c			8.24125
_cell_angle_alpha		90.00000
_cell_angle_beta		90.00000
_cell_angle_gamma		90.00000
_cell_volume			786.95917
_cell_formula_units_Z		48
_symmetry_space_group_name_H-M	'P 1'
_symmetry_Int_Tables_number	1
loop_
_symmetry_equiv_pos_site_id
_symmetry_equiv_pos_as_xyz
1 x,y,z
loop_
_atom_site_label
_atom_site_type_symbol
_atom_site_symmetry_multiplicity
_atom_site_fract_x
_atom_site_fract_y
_atom_site_fract_z
_atom_site_occupancy
Ar1 Ar 1 0.56856 0.68932 0.80934 1.0000
Ar2 Ar 1 0.43144 0.31068 0.19066 1.0000
Ar3 Ar 1 0.93144 0.31068 0.30934 1.0000
Ar4 Ar 1 0.06856 0.68932 0.69066 1.0000
Ar5 Ar 1 0.43144 0.18932 0.19066 1.0000
Ar6 Ar 1 0.56856 0.81068 0.80934 1.0000
Ar7 Ar 1 0.06856 0.81068 0.69066 1.0000
Ar8 Ar 1 0.93144 0.18932 0.30934 1.0000
Ar9 Ar 1 0.62690 0.58091 0.90994 1.0000
Ar10 Ar 1 0.37310 0.41909 0.09006 1.0000
Ar11 Ar 1 0.87310 0.41909 0.40994 1.0000
Ar12 Ar 1 0.12690 0.58091 0.59006 1.0000
Ar13 Ar 1 0.37310 0.08091 0.09006 1.0000
Ar14 Ar 1 0.62690 0.91909 0.90994 1.0000
Ar15 Ar 1 0.12690 0.91909 0.59006 1.0000
Ar16 Ar 1 0.87310 0.08091 0.40994 1.0000
Ar17 Ar 1 0.56878 0.47284 0.80403 1.0000
Ar18 Ar 1 0.43122 0.52716 0.19597 1.0000
Ar19 Ar 1 0.93122 0.52716 0.30403 1.0000
Ar20 Ar 1 0.06878 0.47284 0.69597 1.0000
Ar21 Ar 1 0.43122 0.97284 0.19597 1.0000
Ar22 Ar 1 0.56878 0.02716 0.80403 1.0000
Ar23 Ar 1 0.06878 0.02716 0.69597 1.0000
Ar24 Ar 1 0.93122 0.97284 0.30403 1.0000
Ar25 Ar 1 0.25607 0.47553 0.89436 1.0000
Ar26 Ar 1 0.74393 0.52447 0.10564 1.0000
Ar27 Ar 1 0.24393 0.52447 0.39436 1.0000
Ar28 Ar 1 0.75607 0.47553 0.60564 1.0000
Ar29 Ar 1 0.74393 0.97553 0.10564 1.0000
Ar30 Ar 1 0.25607 0.02447 0.89436 1.0000
Ar31 Ar 1 0.75607 0.02447 0.60564 1.0000
Ar32 Ar 1 0.24393 0.97553 0.39436 1.0000
Ar33 Ar 1 0.31165 0.58316 0.00062 1.0000
Ar34 Ar 1 0.68835 0.41684 0.99938 1.0000
Ar35 Ar 1 0.18835 0.41684 0.50062 1.0000
Ar36 Ar 1 0.81165 0.58316 0.49938 1.0000
Ar37 Ar 1 0.68835 0.08316 0.99938 1.0000
Ar38 Ar 1 0.31165 0.91684 0.00062 1.0000
Ar39 Ar 1 0.81165 0.91684 0.49938 1.0000
Ar40 Ar 1 0.18835 0.08316 0.50062 1.0000
Ar41 Ar 1 0.25142 0.68918 0.89431 1.0000
Ar42 Ar 1 0.74858 0.31082 0.10569 1.0000
Ar43 Ar 1 0.24858 0.31082 0.39431 1.0000
Ar44 Ar 1 0.75142 0.68918 0.60569 1.0000
Ar45 Ar 1 0.74858 0.18918 0.10569 1.0000
Ar46 Ar 1 0.25142 0.81082 0.89431 1.0000
Ar47 Ar 1 0.75142 0.81082 0.60569 1.0000
Ar48 Ar 1 0.24858 0.18918 0.39431 1.0000
B1 B 1 0.64120 0.63805 0.85955 1.0000
B2 B 1 0.35880 0.36195 0.14045 1.0000
B3 B 1 0.85880 0.36195 0.35955 1.0000
B4 B 1 0.14120 0.63805 0.64045 1.0000
B5 B 1 0.35880 0.13805 0.14045 1.0000
B6 B 1 0.64120 0.86195 0.85955 1.0000
B7 B 1 0.14120 0.86195 0.64045 1.0000
B8 B 1 0.85880 0.13805 0.35955 1.0000
B9 B 1 0.64405 0.52570 0.85135 1.0000
B10 B 1 0.35595 0.47430 0.14865 1.0000
B11 B 1 0.85595 0.47430 0.35135 1.0000
B12 B 1 0.14405 0.52570 0.64865 1.0000
B13 B 1 0.35595 0.02570 0.14865 1.0000
B14 B 1 0.64405 0.97430 0.85135 1.0000
B15 B 1 0.14405 0.97430 0.64865 1.0000
B16 B 1 0.85595 0.02570 0.35135 1.0000
B17 B 1 0.40210 0.48615 0.82790 1.0000
B18 B 1 0.59790 0.51385 0.17210 1.0000
B19 B 1 0.09790 0.51385 0.32790 1.0000
B20 B 1 0.90210 0.48615 0.67210 1.0000
B21 B 1 0.59790 0.98615 0.17210 1.0000
B22 B 1 0.40210 0.01385 0.82790 1.0000
B23 B 1 0.90210 0.01385 0.67210 1.0000
B24 B 1 0.09790 0.98615 0.32790 1.0000
B25 B 1 0.24405 0.52665 0.96575 1.0000
B26 B 1 0.75595 0.47335 0.03425 1.0000
B27 B 1 0.25595 0.47335 0.46575 1.0000
B28 B 1 0.74405 0.52665 0.53425 1.0000
B29 B 1 0.75595 0.02665 0.03425 1.0000
B30 B 1 0.24405 0.97335 0.96575 1.0000
B31 B 1 0.74405 0.97335 0.53425 1.0000
B32 B 1 0.25595 0.02665 0.46575 1.0000
B33 B 1 0.24740 0.64025 0.96875 1.0000
B34 B 1 0.75260 0.35975 0.03125 1.0000
B35 B 1 0.25260 0.35975 0.46875 1.0000
B36 B 1 0.74740 0.64025 0.53125 1.0000
B37 B 1 0.75260 0.14025 0.03125 1.0000
B38 B 1 0.24740 0.85975 0.96875 1.0000
B39 B 1 0.74740 0.85975 0.53125 1.0000
B40 B 1 0.25260 0.14025 0.46875 1.0000
B41 B 1 0.40115 0.67830 0.83320 1.0000
B42 B 1 0.59885 0.32170 0.16680 1.0000
B43 B 1 0.09885 0.32170 0.33320 1.0000
B44 B 1 0.90115 0.67830 0.66680 1.0000
B45 B 1 0.59885 0.17830 0.16680 1.0000
B46 B 1 0.40115 0.82170 0.83320 1.0000
B47 B 1 0.90115 0.82170 0.66680 1.0000
B48 B 1 0.09885 0.17830 0.33320 1.0000
B49 B 1 0.45555 0.58205 0.92875 1.0000
B50 B 1 0.54445 0.41795 0.07125 1.0000
B51 B 1 0.04445 0.41795 0.42875 1.0000
B52 B 1 0.95555 0.58205 0.57125 1.0000
B53 B 1 0.54445 0.08205 0.07125 1.0000
B54 B 1 0.45555 0.91795 0.92875 1.0000
B55 B 1 0.95555 0.91795 0.57125 1.0000
B56 B 1 0.04445 0.08205 0.42875 1.0000
B57 B 1 0.58010 0.75000 0.84050 1.0000
B58 B 1 0.41990 0.25000 0.15950 1.0000
B59 B 1 0.91990 0.25000 0.34050 1.0000
B60 B 1 0.08010 0.75000 0.65950 1.0000
B61 B 1 0.61740 0.43055 0.89135 1.0000
B62 B 1 0.38260 0.56945 0.10865 1.0000
B63 B 1 0.88260 0.56945 0.39135 1.0000
B64 B 1 0.11740 0.43055 0.60865 1.0000
B65 B 1 0.38260 0.93055 0.10865 1.0000
B66 B 1 0.61740 0.06945 0.89135 1.0000
B67 B 1 0.11740 0.06945 0.60865 1.0000
B68 B 1 0.88260 0.93055 0.39135 1.0000
B69 B 1 0.63195 0.46475 0.69000 1.0000
B70 B 1 0.36805 0.53525 0.31000 1.0000
B71 B 1 0.86805 0.53525 0.19000 1.0000
B72 B 1 0.13195 0.46475 0.81000 1.0000
B73 B 1 0.36805 0.96475 0.31000 1.0000
B74 B 1 0.63195 0.03525 0.69000 1.0000
B75 B 1 0.13195 0.03525 0.81000 1.0000
B76 B 1 0.86805 0.96475 0.19000 1.0000
B77 B 1 0.30865 0.43320 0.97700 1.0000
B78 B 1 0.69135 0.56680 0.02300 1.0000
B79 B 1 0.19135 0.56680 0.47700 1.0000
B80 B 1 0.80865 0.43320 0.52300 1.0000
B81 B 1 0.69135 0.93320 0.02300 1.0000
B82 B 1 0.30865 0.06680 0.97700 1.0000
B83 B 1 0.80865 0.06680 0.52300 1.0000
B84 B 1 0.19135 0.93320 0.47700 1.0000
B85 B 1 0.62940 0.69245 0.69270 1.0000
B86 B 1 0.37060 0.30755 0.30730 1.0000
B87 B 1 0.87060 0.30755 0.19270 1.0000
B88 B 1 0.12940 0.69245 0.80730 1.0000
B89 B 1 0.37060 0.19245 0.30730 1.0000
B90 B 1 0.62940 0.80755 0.69270 1.0000
B91 B 1 0.12940 0.80755 0.80730 1.0000
B92 B 1 0.87060 0.19245 0.19270 1.0000
B93 B 1 0.27350 0.75000 0.92480 1.0000
B94 B 1 0.72650 0.25000 0.07520 1.0000
B95 B 1 0.22650 0.25000 0.42480 1.0000
B96 B 1 0.77350 0.75000 0.57520 1.0000
#End of data_5_QOSXOM

data_6_QOSXUS
_chemical_name_common		'TIF3 '
_chemical_formula_structural	'Zn(Im)(mbIm)'
_chemical_formula_sum		'Ar1 B2'
_citation_special_details	'original source structure doi: 10.1021/cm802400f'
;
File: QOSXUS.cif.
;
_cell_length_a			9.15502
_cell_length_b			8.78982
_cell_length_c			6.34235
_cell_angle_alpha		90.00000
_cell_angle_beta		93.20600
_cell_angle_gamma		90.00000
_cell_volume			509.57658
_cell_formula_units_Z		32
_symmetry_space_group_name_H-M	'P 1'
_symmetry_Int_Tables_number	1
loop_
_symmetry_equiv_pos_site_id
_symmetry_equiv_pos_as_xyz
1 x,y,z
loop_
_atom_site_label
_atom_site_type_symbol
_atom_site_symmetry_multiplicity
_atom_site_fract_x
_atom_site_fract_y
_atom_site_fract_z
_atom_site_occupancy
Ar1 Ar 1 0.21027 0.13804 0.76309 1.0000
Ar2 Ar 1 0.78973 0.86196 0.23691 1.0000
Ar3 Ar 1 0.78973 0.13804 0.73691 1.0000
Ar4 Ar 1 0.21027 0.86196 0.26309 1.0000
Ar5 Ar 1 0.71027 0.63804 0.76309 1.0000
Ar6 Ar 1 0.28973 0.36196 0.23691 1.0000
Ar7 Ar 1 0.28973 0.63804 0.73691 1.0000
Ar8 Ar 1 0.71027 0.36196 0.26309 1.0000
Ar9 Ar 1 0.09535 0.33216 0.84810 1.0000
Ar10 Ar 1 0.90465 0.66784 0.15190 1.0000
Ar11 Ar 1 0.90465 0.33216 0.65190 1.0000
Ar12 Ar 1 0.09535 0.66784 0.34810 1.0000
Ar13 Ar 1 0.59535 0.83216 0.84810 1.0000
Ar14 Ar 1 0.40465 0.16784 0.15190 1.0000
Ar15 Ar 1 0.40465 0.83216 0.65190 1.0000
Ar16 Ar 1 0.59535 0.16784 0.34810 1.0000
Ar17 Ar 1 0.29227 0.44483 0.92775 1.0000
Ar18 Ar 1 0.70773 0.55517 0.07225 1.0000
Ar19 Ar 1 0.70773 0.44483 0.57225 1.0000
Ar20 Ar 1 0.29227 0.55517 0.42775 1.0000
Ar21 Ar 1 0.79227 0.94483 0.92775 1.0000
Ar22 Ar 1 0.20773 0.05517 0.07225 1.0000
Ar23 Ar 1 0.20773 0.94483 0.57225 1.0000
Ar24 Ar 1 0.79227 0.05517 0.42775 1.0000
Ar25 Ar 1 0.40615 0.25032 0.84401 1.0000
Ar26 Ar 1 0.59385 0.74968 0.15599 1.0000
Ar27 Ar 1 0.59385 0.25032 0.65599 1.0000
Ar28 Ar 1 0.40615 0.74968 0.34401 1.0000
Ar29 Ar 1 0.90615 0.75032 0.84401 1.0000
Ar30 Ar 1 0.09385 0.24968 0.15599 1.0000
Ar31 Ar 1 0.09385 0.75032 0.65599 1.0000
Ar32 Ar 1 0.90615 0.24968 0.34401 1.0000
B1 B 1 0.29410 0.21015 0.75325 1.0000
B2 B 1 0.70590 0.78985 0.24675 1.0000
B3 B 1 0.70590 0.21015 0.74675 1.0000
B4 B 1 0.29410 0.78985 0.25325 1.0000
B5 B 1 0.79410 0.71015 0.75325 1.0000
B6 B 1 0.20590 0.28985 0.24675 1.0000
B7 B 1 0.20590 0.71015 0.74675 1.0000
B8 B 1 0.79410 0.28985 0.25325 1.0000
B9 B 1 0.38330 0.37440 0.92385 1.0000
B10 B 1 0.61670 0.62560 0.07615 1.0000
B11 B 1 0.61670 0.37440 0.57615 1.0000
B12 B 1 0.38330 0.62560 0.42385 1.0000
B13 B 1 0.88330 0.87440 0.92385 1.0000
B14 B 1 0.11670 0.12560 0.07615 1.0000
B15 B 1 0.11670 0.87440 0.57615 1.0000
B16 B 1 0.88330 0.12560 0.42385 1.0000
B17 B 1 0.41565 0.17215 0.96090 1.0000
B18 B 1 0.58435 0.82785 0.03910 1.0000
B19 B 1 0.58435 0.17215 0.53910 1.0000
B20 B 1 0.41565 0.82785 0.46090 1.0000
B21 B 1 0.91565 0.67215 0.96090 1.0000
B22 B 1 0.08435 0.32785 0.03910 1.0000
B23 B 1 0.08435 0.67215 0.53910 1.0000
B24 B 1 0.91565 0.32785 0.46090 1.0000
B25 B 1 0.13115 0.22295 0.79980 1.0000
B26 B 1 0.86885 0.77705 0.20020 1.0000
B27 B 1 0.86885 0.22295 0.70020 1.0000
B28 B 1 0.13115 0.77705 0.29980 1.0000
B29 B 1 0.63115 0.72295 0.79980 1.0000
B30 B 1 0.36885 0.27705 0.20020 1.0000
B31 B 1 0.36885 0.72295 0.70020 1.0000
B32 B 1 0.63115 0.27705 0.29980 1.0000
B33 B 1 0.19435 0.39620 0.85520 1.0000
B34 B 1 0.80565 0.60380 0.14480 1.0000
B35 B 1 0.80565 0.39620 0.64480 1.0000
B36 B 1 0.19435 0.60380 0.35520 1.0000
B37 B 1 0.69435 0.89620 0.85520 1.0000
B38 B 1 0.30565 0.10380 0.14480 1.0000
B39 B 1 0.30565 0.89620 0.64480 1.0000
B40 B 1 0.69435 0.10380 0.35520 1.0000
B41 B 1 0.19625 0.05415 0.63995 1.0000
B42 B 1 0.80375 0.94585 0.36005 1.0000
B43 B 1 0.80375 0.05415 0.86005 1.0000
B44 B 1 0.19625 0.94585 0.13995 1.0000
B45 B 1 0.69625 0.55415 0.63995 1.0000
B46 B 1 0.30375 0.44585 0.36005 1.0000
B47 B 1 0.30375 0.55415 0.86005 1.0000
B48 B 1 0.69625 0.44585 0.13995 1.0000
B49 B 1 0.50000 0.25300 0.75000 1.0000
B50 B 1 0.50000 0.74700 0.25000 1.0000
B51 B 1 1.00000 0.75300 0.75000 1.0000
B52 B 1 1.00000 0.24700 0.25000 1.0000
B53 B 1 0.27610 0.42230 0.09430 1.0000
B54 B 1 0.72390 0.57770 0.90570 1.0000
B55 B 1 0.72390 0.42230 0.40570 1.0000
B56 B 1 0.27610 0.57770 0.59430 1.0000
B57 B 1 0.77610 0.92230 0.09430 1.0000
B58 B 1 0.22390 0.07770 0.90570 1.0000
B59 B 1 0.22390 0.92230 0.40570 1.0000
B60 B 1 0.77610 0.07770 0.59430 1.0000
B61 B 1 1.00000 0.36060 0.75000 1.0000
B62 B 1 1.00000 0.63940 0.25000 1.0000
B63 B 1 0.50000 0.86060 0.75000 1.0000
B64 B 1 0.50000 0.13940 0.25000 1.0000
#End of data_6_QOSXUS

