data_1_GITVOV
_chemical_name_common		'ZIF73 '
_chemical_formula_structural	'Zn(nIm)1.74(mbIm)0.26'
_chemical_formula_sum		'Ar1 B2'
_citation_special_details	'original source structure doi: 10.1126/science.1152516'
;
File: GITVOV.cif.
;
_cell_length_a			3.57502
_cell_length_b			7.43171
_cell_length_c			8.14058
_cell_angle_alpha		90.00000
_cell_angle_beta		90.00000
_cell_angle_gamma		90.00000
_cell_volume			216.28273
_cell_formula_units_Z		20
_symmetry_space_group_name_H-M	'P 1'
_symmetry_Int_Tables_number	1
loop_
_symmetry_equiv_pos_site_id
_symmetry_equiv_pos_as_xyz
1 x,y,z
loop_
_atom_site_label
_atom_site_type_symbol
_atom_site_symmetry_multiplicity
_atom_site_fract_x
_atom_site_fract_y
_atom_site_fract_z
_atom_site_occupancy
Ar1 Ar 1 0.22113 0.19506 0.37729 1.0000
Ar2 Ar 1 0.77887 0.80494 0.62270 1.0000
Ar3 Ar 1 0.77887 0.80494 0.37729 1.0000
Ar4 Ar 1 0.22113 0.19506 0.62270 1.0000
Ar5 Ar 1 0.27887 0.69506 0.62270 1.0000
Ar6 Ar 1 0.72113 0.30494 0.37729 1.0000
Ar7 Ar 1 0.72113 0.30494 0.62270 1.0000
Ar8 Ar 1 0.27887 0.69506 0.37729 1.0000
Ar9 Ar 1 0.72113 0.69506 0.87730 1.0000
Ar10 Ar 1 0.27887 0.30494 0.12271 1.0000
Ar11 Ar 1 0.27887 0.30494 0.87730 1.0000
Ar12 Ar 1 0.72113 0.69506 0.12271 1.0000
Ar13 Ar 1 0.77887 0.19506 0.12271 1.0000
Ar14 Ar 1 0.22113 0.80494 0.87730 1.0000
Ar15 Ar 1 0.22113 0.80494 0.12271 1.0000
Ar16 Ar 1 0.77887 0.19506 0.87730 1.0000
Ar17 Ar 1 0.00000 0.00000 0.25000 1.0000
Ar18 Ar 1 0.00000 0.00000 0.75000 1.0000
Ar19 Ar 1 0.50000 0.50000 0.75000 1.0000
Ar20 Ar 1 0.50000 0.50000 0.25000 1.0000
B1 B 1 0.15910 0.07469 0.32662 1.0000
B2 B 1 0.84090 0.92531 0.67338 1.0000
B3 B 1 0.84090 0.92531 0.32662 1.0000
B4 B 1 0.15910 0.07469 0.67338 1.0000
B5 B 1 0.34090 0.57470 0.67338 1.0000
B6 B 1 0.65910 0.42530 0.32662 1.0000
B7 B 1 0.65910 0.42530 0.67338 1.0000
B8 B 1 0.34090 0.57470 0.32662 1.0000
B9 B 1 0.65910 0.57470 0.82662 1.0000
B10 B 1 0.34090 0.42530 0.17338 1.0000
B11 B 1 0.34090 0.42530 0.82662 1.0000
B12 B 1 0.65910 0.57470 0.17338 1.0000
B13 B 1 0.84090 0.07469 0.17338 1.0000
B14 B 1 0.15910 0.92531 0.82662 1.0000
B15 B 1 0.15910 0.92531 0.17338 1.0000
B16 B 1 0.84090 0.07469 0.82662 1.0000
B17 B 1 0.48010 0.24007 0.35187 1.0000
B18 B 1 0.51990 0.75993 0.64813 1.0000
B19 B 1 0.51990 0.75993 0.35187 1.0000
B20 B 1 0.48010 0.24007 0.64813 1.0000
B21 B 1 0.01990 0.74007 0.64813 1.0000
B22 B 1 0.98010 0.25993 0.35187 1.0000
B23 B 1 0.98010 0.25993 0.64813 1.0000
B24 B 1 0.01990 0.74007 0.35187 1.0000
B25 B 1 0.98010 0.74007 0.85187 1.0000
B26 B 1 0.01990 0.25993 0.14813 1.0000
B27 B 1 0.01990 0.25993 0.85187 1.0000
B28 B 1 0.98010 0.74007 0.14813 1.0000
B29 B 1 0.51990 0.24007 0.14813 1.0000
B30 B 1 0.48010 0.75993 0.85187 1.0000
B31 B 1 0.48010 0.75993 0.14813 1.0000
B32 B 1 0.51990 0.24007 0.85187 1.0000
B33 B 1 0.23325 0.19755 0.50000 1.0000
B34 B 1 0.76675 0.80245 0.50000 1.0000
B35 B 1 0.26675 0.69755 0.50000 1.0000
B36 B 1 0.73325 0.30245 0.50000 1.0000
B37 B 1 0.73325 0.69755 0.00000 1.0000
B38 B 1 0.26675 0.30245 0.00000 1.0000
B39 B 1 0.76675 0.19755 0.00000 1.0000
B40 B 1 0.23325 0.80245 0.00000 1.0000
#End of data_1_GITVOV

data_2_AFIXAO
_chemical_formula_structural	'Co5(Im)10'
_chemical_formula_sum		'Ar1 B2'
_citation_special_details	'original source structure doi: 10.1002/1521-3757(20020415)114:8<1442::AID-ANGE1442>3.0.CO;2-4; 10.1002/chem.200304957'
;
File: AFIXAO.cif.
;
_cell_length_a			8.11595
_cell_length_b			3.15181
_cell_length_c			8.28480
_cell_angle_alpha		90.00000
_cell_angle_beta		91.87700
_cell_angle_gamma		90.00000
_cell_volume			211.81078
_cell_formula_units_Z		20
_symmetry_space_group_name_H-M	'P 1'
_symmetry_Int_Tables_number	1
loop_
_symmetry_equiv_pos_site_id
_symmetry_equiv_pos_as_xyz
1 x,y,z
loop_
_atom_site_label
_atom_site_type_symbol
_atom_site_symmetry_multiplicity
_atom_site_fract_x
_atom_site_fract_y
_atom_site_fract_z
_atom_site_occupancy
Ar1 Ar 1 0.73712 0.95443 0.32056 1.0000
Ar2 Ar 1 0.26288 0.04557 0.67944 1.0000
Ar3 Ar 1 0.76288 0.45443 0.17944 1.0000
Ar4 Ar 1 0.23712 0.54557 0.82056 1.0000
Ar5 Ar 1 0.51569 0.74030 0.28512 1.0000
Ar6 Ar 1 0.48431 0.25970 0.71488 1.0000
Ar7 Ar 1 0.98431 0.24030 0.21488 1.0000
Ar8 Ar 1 0.01569 0.75970 0.78512 1.0000
Ar9 Ar 1 0.53079 0.23538 0.14190 1.0000
Ar10 Ar 1 0.46921 0.76462 0.85810 1.0000
Ar11 Ar 1 0.96921 0.73538 0.35810 1.0000
Ar12 Ar 1 0.03079 0.26462 0.64190 1.0000
Ar13 Ar 1 0.66012 0.83253 0.01687 1.0000
Ar14 Ar 1 0.33988 0.16747 0.98313 1.0000
Ar15 Ar 1 0.83988 0.33253 0.48313 1.0000
Ar16 Ar 1 0.16012 0.66747 0.51687 1.0000
Ar17 Ar 1 0.78511 0.96415 0.81894 1.0000
Ar18 Ar 1 0.21489 0.03585 0.18106 1.0000
Ar19 Ar 1 0.71489 0.46415 0.68106 1.0000
Ar20 Ar 1 0.28511 0.53585 0.31894 1.0000
B1 B 1 0.72240 0.23590 0.25975 1.0000
B2 B 1 0.27760 0.76410 0.74025 1.0000
B3 B 1 0.77760 0.73590 0.24025 1.0000
B4 B 1 0.22240 0.26410 0.75975 1.0000
B5 B 1 0.62565 0.81320 0.33565 1.0000
B6 B 1 0.37435 0.18680 0.66435 1.0000
B7 B 1 0.87435 0.31320 0.16435 1.0000
B8 B 1 0.12565 0.68680 0.83565 1.0000
B9 B 1 0.49570 0.01870 0.22460 1.0000
B10 B 1 0.50430 0.98130 0.77540 1.0000
B11 B 1 0.00430 0.51870 0.27540 1.0000
B12 B 1 0.99570 0.48130 0.72460 1.0000
B13 B 1 0.40685 0.63015 0.32620 1.0000
B14 B 1 0.59315 0.36985 0.67380 1.0000
B15 B 1 0.09315 0.13015 0.17380 1.0000
B16 B 1 0.90685 0.86985 0.82620 1.0000
B17 B 1 0.62185 0.05140 0.09730 1.0000
B18 B 1 0.37815 0.94860 0.90270 1.0000
B19 B 1 0.87815 0.55140 0.40270 1.0000
B20 B 1 0.12185 0.44860 0.59730 1.0000
B21 B 1 0.44765 0.23335 0.04680 1.0000
B22 B 1 0.55235 0.76665 0.95320 1.0000
B23 B 1 0.05235 0.73335 0.45320 1.0000
B24 B 1 0.94765 0.26665 0.54680 1.0000
B25 B 1 0.54470 0.51765 0.20105 1.0000
B26 B 1 0.45530 0.48235 0.79895 1.0000
B27 B 1 0.95530 0.01765 0.29895 1.0000
B28 B 1 0.04470 0.98235 0.70105 1.0000
B29 B 1 0.73125 0.95475 0.92825 1.0000
B30 B 1 0.26875 0.04525 0.07175 1.0000
B31 B 1 0.76875 0.45475 0.57175 1.0000
B32 B 1 0.23125 0.54525 0.42825 1.0000
B33 B 1 0.70275 0.57755 0.08165 1.0000
B34 B 1 0.29725 0.42245 0.91835 1.0000
B35 B 1 0.79725 0.07755 0.41835 1.0000
B36 B 1 0.20275 0.92245 0.58165 1.0000
B37 B 1 0.72770 0.73755 0.74805 1.0000
B38 B 1 0.27230 0.26245 0.25195 1.0000
B39 B 1 0.77230 0.23755 0.75195 1.0000
B40 B 1 0.22770 0.76245 0.24805 1.0000
#End of data_2_AFIXAO

data_3_CUIMDZ03
_chemical_formula_structural	'Cu(Im)2'
_chemical_formula_sum		'Ar1 B2'
_citation_special_details	'original source structure doi: 10.1021/ic010384+'
;
File: CUIMDZ03.cif.
;
_cell_length_a			3.88271
_cell_length_b			7.73602
_cell_length_c			2.99658
_cell_angle_alpha		90.00000
_cell_angle_beta		104.99300
_cell_angle_gamma		90.00000
_cell_volume			86.94334
_cell_formula_units_Z		12
_symmetry_space_group_name_H-M	'P 1'
_symmetry_Int_Tables_number	1
loop_
_symmetry_equiv_pos_site_id
_symmetry_equiv_pos_as_xyz
1 x,y,z
loop_
_atom_site_label
_atom_site_type_symbol
_atom_site_symmetry_multiplicity
_atom_site_fract_x
_atom_site_fract_y
_atom_site_fract_z
_atom_site_occupancy
Ar1 Ar 1 0.50000 0.20360 0.25000 1.0000
Ar2 Ar 1 0.50000 0.79640 0.75000 1.0000
Ar3 Ar 1 1.00000 0.70360 0.25000 1.0000
Ar4 Ar 1 1.00000 0.29640 0.75000 1.0000
Ar5 Ar 1 0.25290 0.41923 0.35750 1.0000
Ar6 Ar 1 0.74710 0.58077 0.64250 1.0000
Ar7 Ar 1 0.74710 0.41923 0.14250 1.0000
Ar8 Ar 1 0.25290 0.58077 0.85750 1.0000
Ar9 Ar 1 0.75290 0.91923 0.35750 1.0000
Ar10 Ar 1 0.24710 0.08077 0.64250 1.0000
Ar11 Ar 1 0.24710 0.91923 0.14250 1.0000
Ar12 Ar 1 0.75290 0.08077 0.85750 1.0000
B1 B 1 0.33275 0.30040 0.28195 1.0000
B2 B 1 0.66725 0.69960 0.71805 1.0000
B3 B 1 0.66725 0.30040 0.21805 1.0000
B4 B 1 0.33275 0.69960 0.78195 1.0000
B5 B 1 0.83275 0.80040 0.28195 1.0000
B6 B 1 0.16725 0.19960 0.71805 1.0000
B7 B 1 0.16725 0.80040 0.21805 1.0000
B8 B 1 0.83275 0.19960 0.78195 1.0000
B9 B 1 0.28780 0.51780 0.58105 1.0000
B10 B 1 0.71220 0.48220 0.41895 1.0000
B11 B 1 0.71220 0.51780 0.91895 1.0000
B12 B 1 0.28780 0.48220 0.08105 1.0000
B13 B 1 0.78780 0.01780 0.58105 1.0000
B14 B 1 0.21220 0.98220 0.41895 1.0000
B15 B 1 0.21220 0.01780 0.91895 1.0000
B16 B 1 0.78780 0.98220 0.08105 1.0000
B17 B 1 0.42230 0.12555 0.47585 1.0000
B18 B 1 0.57770 0.87445 0.52415 1.0000
B19 B 1 0.57770 0.12555 0.02415 1.0000
B20 B 1 0.42230 0.87445 0.97585 1.0000
B21 B 1 0.92230 0.62555 0.47585 1.0000
B22 B 1 0.07770 0.37445 0.52415 1.0000
B23 B 1 0.07770 0.62555 0.02415 1.0000
B24 B 1 0.92230 0.37445 0.97585 1.0000
#End of data_3_CUIMDZ03

data_4_YOZCAS
_chemical_name_common		'ZIF81Â  '
_chemical_formula_structural	'Zn(brbIm)(nIm)'
_chemical_formula_sum		'Ar1 B2'
_citation_special_details	'original source structure doi: 10.1021/ja809459e'
;
File: YOZCAS.cif.
;
_cell_length_a			8.48317
_cell_length_b			8.48317
_cell_length_c			6.42929
_cell_angle_alpha		90.00000
_cell_angle_beta		90.00000
_cell_angle_gamma		120.00000
_cell_volume			400.69067
_cell_formula_units_Z		24
_symmetry_space_group_name_H-M	'P 1'
_symmetry_Int_Tables_number	1
loop_
_symmetry_equiv_pos_site_id
_symmetry_equiv_pos_as_xyz
1 x,y,z
loop_
_atom_site_label
_atom_site_type_symbol
_atom_site_symmetry_multiplicity
_atom_site_fract_x
_atom_site_fract_y
_atom_site_fract_z
_atom_site_occupancy
Ar1 Ar 1 0.10178 0.43387 0.40287 1.0000
Ar2 Ar 1 0.89822 0.56613 0.59713 1.0000
Ar3 Ar 1 0.56613 0.66791 0.40287 1.0000
Ar4 Ar 1 0.43387 0.33209 0.59713 1.0000
Ar5 Ar 1 0.33209 0.89822 0.40287 1.0000
Ar6 Ar 1 0.66791 0.10178 0.59713 1.0000
Ar7 Ar 1 0.89822 0.56613 0.90287 1.0000
Ar8 Ar 1 0.10178 0.43387 0.09713 1.0000
Ar9 Ar 1 0.43387 0.33209 0.90287 1.0000
Ar10 Ar 1 0.56613 0.66791 0.09713 1.0000
Ar11 Ar 1 0.66791 0.10178 0.90287 1.0000
Ar12 Ar 1 0.33209 0.89822 0.09713 1.0000
Ar13 Ar 1 0.43387 0.10178 0.59713 1.0000
Ar14 Ar 1 0.56613 0.89822 0.40287 1.0000
Ar15 Ar 1 0.66791 0.56613 0.59713 1.0000
Ar16 Ar 1 0.33209 0.43387 0.40287 1.0000
Ar17 Ar 1 0.89822 0.33209 0.59713 1.0000
Ar18 Ar 1 0.10178 0.66791 0.40287 1.0000
Ar19 Ar 1 0.56613 0.89822 0.09713 1.0000
Ar20 Ar 1 0.43387 0.10178 0.90287 1.0000
Ar21 Ar 1 0.33209 0.43387 0.09713 1.0000
Ar22 Ar 1 0.66791 0.56613 0.90287 1.0000
Ar23 Ar 1 0.10178 0.66791 0.09713 1.0000
Ar24 Ar 1 0.89822 0.33209 0.90287 1.0000
B1 B 1 0.08220 0.40650 0.25000 1.0000
B2 B 1 0.91780 0.59350 0.75000 1.0000
B3 B 1 0.59350 0.67570 0.25000 1.0000
B4 B 1 0.40650 0.32430 0.75000 1.0000
B5 B 1 0.32430 0.91780 0.25000 1.0000
B6 B 1 0.67570 0.08220 0.75000 1.0000
B7 B 1 0.40650 0.08220 0.75000 1.0000
B8 B 1 0.59350 0.91780 0.25000 1.0000
B9 B 1 0.67570 0.59350 0.75000 1.0000
B10 B 1 0.32430 0.40650 0.25000 1.0000
B11 B 1 0.91780 0.32430 0.75000 1.0000
B12 B 1 0.08220 0.67570 0.25000 1.0000
B13 B 1 0.11440 0.55720 0.42620 1.0000
B14 B 1 0.88560 0.44280 0.57380 1.0000
B15 B 1 0.44280 0.55720 0.42620 1.0000
B16 B 1 0.55720 0.44280 0.57380 1.0000
B17 B 1 0.44280 0.88560 0.42620 1.0000
B18 B 1 0.55720 0.11440 0.57380 1.0000
B19 B 1 0.88560 0.44280 0.92620 1.0000
B20 B 1 0.11440 0.55720 0.07380 1.0000
B21 B 1 0.55720 0.44280 0.92620 1.0000
B22 B 1 0.44280 0.55720 0.07380 1.0000
B23 B 1 0.55720 0.11440 0.92620 1.0000
B24 B 1 0.44280 0.88560 0.07380 1.0000
B25 B 1 0.21525 0.43050 0.43590 1.0000
B26 B 1 0.78475 0.56950 0.56410 1.0000
B27 B 1 0.56950 0.78475 0.43590 1.0000
B28 B 1 0.43050 0.21525 0.56410 1.0000
B29 B 1 0.21525 0.78475 0.43590 1.0000
B30 B 1 0.78475 0.21525 0.56410 1.0000
B31 B 1 0.78475 0.56950 0.93590 1.0000
B32 B 1 0.21525 0.43050 0.06410 1.0000
B33 B 1 0.43050 0.21525 0.93590 1.0000
B34 B 1 0.56950 0.78475 0.06410 1.0000
B35 B 1 0.78475 0.21525 0.93590 1.0000
B36 B 1 0.21525 0.78475 0.06410 1.0000
B37 B 1 0.00000 0.35615 0.50000 1.0000
B38 B 1 0.00000 0.64385 0.50000 1.0000
B39 B 1 0.64385 0.64385 0.50000 1.0000
B40 B 1 0.35615 0.35615 0.50000 1.0000
B41 B 1 0.35615 0.00000 0.50000 1.0000
B42 B 1 0.64385 0.00000 0.50000 1.0000
B43 B 1 0.00000 0.64385 0.00000 1.0000
B44 B 1 0.00000 0.35615 0.00000 1.0000
B45 B 1 0.35615 0.35615 0.00000 1.0000
B46 B 1 0.64385 0.64385 0.00000 1.0000
B47 B 1 0.64385 0.00000 0.00000 1.0000
B48 B 1 0.35615 0.00000 0.00000 1.0000
#End of data_4_YOZCAS

data_5_MIHHOB
_chemical_name_common		'ZIF23 '
_chemical_formula_structural	'Zn(4abIm)2'
_chemical_formula_sum		'Ar1 B2'
_citation_special_details	'original source structure doi: 10.1038/nmat1927'
;
File: MIHHOB.cif.
;
_cell_length_a			3.12168
_cell_length_b			3.31733
_cell_length_c			4.06927
_cell_angle_alpha		90.00000
_cell_angle_beta		90.00000
_cell_angle_gamma		90.00000
_cell_volume			42.13994
_cell_formula_units_Z		4
_symmetry_space_group_name_H-M	'P 1'
_symmetry_Int_Tables_number	1
loop_
_symmetry_equiv_pos_site_id
_symmetry_equiv_pos_as_xyz
1 x,y,z
loop_
_atom_site_label
_atom_site_type_symbol
_atom_site_symmetry_multiplicity
_atom_site_fract_x
_atom_site_fract_y
_atom_site_fract_z
_atom_site_occupancy
Ar1 Ar 1 0.94905 0.32677 0.63174 1.0000
Ar2 Ar 1 0.55095 0.67323 0.13174 1.0000
Ar3 Ar 1 0.05095 0.82677 0.86826 1.0000
Ar4 Ar 1 0.44905 0.17323 0.36826 1.0000
B1 B 1 0.16580 0.27950 0.45210 1.0000
B2 B 1 0.33420 0.72050 0.95210 1.0000
B3 B 1 0.83420 0.77950 0.04790 1.0000
B4 B 1 0.66580 0.22050 0.54790 1.0000
B5 B 1 0.05450 0.11245 0.78445 1.0000
B6 B 1 0.44550 0.88755 0.28445 1.0000
B7 B 1 0.94550 0.61245 0.71555 1.0000
B8 B 1 0.55450 0.38755 0.21555 1.0000
#End of data_5_MIHHOB

data_6_VEJYOZ
_chemical_name_common		'ZIF3 '
_chemical_formula_structural	'Zn2(Im)4'
_chemical_formula_sum		'Ar1 B2'
_citation_special_details	'original source structure doi: 10.1073/pnas.0602439103'
;
File: VEJYOZ.cif.
;
_cell_length_a			6.23958
_cell_length_b			6.23958
_cell_length_c			5.50606
_cell_angle_alpha		90.00000
_cell_angle_beta		90.00000
_cell_angle_gamma		90.00000
_cell_volume			214.36413
_cell_formula_units_Z		16
_symmetry_space_group_name_H-M	'P 1'
_symmetry_Int_Tables_number	1
loop_
_symmetry_equiv_pos_site_id
_symmetry_equiv_pos_as_xyz
1 x,y,z
loop_
_atom_site_label
_atom_site_type_symbol
_atom_site_symmetry_multiplicity
_atom_site_fract_x
_atom_site_fract_y
_atom_site_fract_z
_atom_site_occupancy
Ar1 Ar 1 0.60549 0.17336 0.17924 1.0000
Ar2 Ar 1 0.39451 0.82664 0.82076 1.0000
Ar3 Ar 1 0.39451 0.82664 0.17924 1.0000
Ar4 Ar 1 0.60549 0.17336 0.82076 1.0000
Ar5 Ar 1 0.32664 0.10549 0.67924 1.0000
Ar6 Ar 1 0.67336 0.89451 0.32076 1.0000
Ar7 Ar 1 0.67336 0.89451 0.67924 1.0000
Ar8 Ar 1 0.32664 0.10549 0.32076 1.0000
Ar9 Ar 1 0.89451 0.67336 0.32076 1.0000
Ar10 Ar 1 0.10549 0.32664 0.67924 1.0000
Ar11 Ar 1 0.10549 0.32664 0.32076 1.0000
Ar12 Ar 1 0.89451 0.67336 0.67924 1.0000
Ar13 Ar 1 0.17336 0.60549 0.82076 1.0000
Ar14 Ar 1 0.82664 0.39451 0.17924 1.0000
Ar15 Ar 1 0.82664 0.39451 0.82076 1.0000
Ar16 Ar 1 0.17336 0.60549 0.17924 1.0000
B1 B 1 0.69380 0.30620 0.20440 1.0000
B2 B 1 0.30620 0.69380 0.79560 1.0000
B3 B 1 0.30620 0.69380 0.20440 1.0000
B4 B 1 0.69380 0.30620 0.79560 1.0000
B5 B 1 0.19380 0.19380 0.70440 1.0000
B6 B 1 0.80620 0.80620 0.29560 1.0000
B7 B 1 0.80620 0.80620 0.70440 1.0000
B8 B 1 0.19380 0.19380 0.29560 1.0000
B9 B 1 0.66355 0.04925 0.27480 1.0000
B10 B 1 0.33645 0.95075 0.72520 1.0000
B11 B 1 0.33645 0.95075 0.27480 1.0000
B12 B 1 0.66355 0.04925 0.72520 1.0000
B13 B 1 0.45075 0.16355 0.77480 1.0000
B14 B 1 0.54925 0.83645 0.22520 1.0000
B15 B 1 0.54925 0.83645 0.77480 1.0000
B16 B 1 0.45075 0.16355 0.22520 1.0000
B17 B 1 0.83645 0.54925 0.22520 1.0000
B18 B 1 0.16355 0.45075 0.77480 1.0000
B19 B 1 0.16355 0.45075 0.22520 1.0000
B20 B 1 0.83645 0.54925 0.77480 1.0000
B21 B 1 0.04925 0.66355 0.72520 1.0000
B22 B 1 0.95075 0.33645 0.27480 1.0000
B23 B 1 0.95075 0.33645 0.72520 1.0000
B24 B 1 0.04925 0.66355 0.27480 1.0000
B25 B 1 0.62800 0.14990 0.00000 1.0000
B26 B 1 0.37200 0.85010 0.00000 1.0000
B27 B 1 0.35010 0.12800 0.50000 1.0000
B28 B 1 0.64990 0.87200 0.50000 1.0000
B29 B 1 0.87200 0.64990 0.50000 1.0000
B30 B 1 0.12800 0.35010 0.50000 1.0000
B31 B 1 0.14990 0.62800 0.00000 1.0000
B32 B 1 0.85010 0.37200 0.00000 1.0000
#End of data_6_VEJYOZ

data_7_EQOCOC01
_chemical_name_common		'ZIF6Â  '
_chemical_formula_structural	'Zn(Im)2'
_chemical_formula_sum		'Ar1 B2'
_citation_special_details	'original source structure doi: 10.1073/pnas.0602439103'
;
File: EQOCOC01.cif.
;
_cell_length_a			6.04475
_cell_length_b			6.04475
_cell_length_c			6.60956
_cell_angle_alpha		90.00000
_cell_angle_beta		90.00000
_cell_angle_gamma		90.00000
_cell_volume			241.50683
_cell_formula_units_Z		16
_symmetry_space_group_name_H-M	'P 1'
_symmetry_Int_Tables_number	1
loop_
_symmetry_equiv_pos_site_id
_symmetry_equiv_pos_as_xyz
1 x,y,z
loop_
_atom_site_label
_atom_site_type_symbol
_atom_site_symmetry_multiplicity
_atom_site_fract_x
_atom_site_fract_y
_atom_site_fract_z
_atom_site_occupancy
Ar1 Ar 1 0.33653 0.41347 0.12500 1.0000
Ar2 Ar 1 0.66347 0.58653 0.87500 1.0000
Ar3 Ar 1 0.16347 0.58653 0.62500 1.0000
Ar4 Ar 1 0.83653 0.41347 0.37500 1.0000
Ar5 Ar 1 0.83653 0.08653 0.37500 1.0000
Ar6 Ar 1 0.16347 0.91347 0.62500 1.0000
Ar7 Ar 1 0.66347 0.91347 0.87500 1.0000
Ar8 Ar 1 0.33653 0.08653 0.12500 1.0000
Ar9 Ar 1 0.16347 0.41347 0.37500 1.0000
Ar10 Ar 1 0.83653 0.58653 0.62500 1.0000
Ar11 Ar 1 0.33653 0.58653 0.87500 1.0000
Ar12 Ar 1 0.66347 0.41347 0.12500 1.0000
Ar13 Ar 1 0.66347 0.08653 0.12500 1.0000
Ar14 Ar 1 0.33653 0.91347 0.87500 1.0000
Ar15 Ar 1 0.83653 0.91347 0.62500 1.0000
Ar16 Ar 1 0.16347 0.08653 0.37500 1.0000
B1 B 1 0.30190 0.50000 1.00000 1.0000
B2 B 1 0.69810 0.50000 1.00000 1.0000
B3 B 1 0.19810 0.50000 0.50000 1.0000
B4 B 1 0.80190 0.50000 0.50000 1.0000
B5 B 1 0.75000 0.05190 0.25000 1.0000
B6 B 1 0.25000 0.94810 0.75000 1.0000
B7 B 1 0.75000 0.94810 0.75000 1.0000
B8 B 1 0.25000 0.05190 0.25000 1.0000
B9 B 1 0.80190 1.00000 0.50000 1.0000
B10 B 1 0.19810 1.00000 0.50000 1.0000
B11 B 1 0.69810 1.00000 1.00000 1.0000
B12 B 1 0.30190 1.00000 1.00000 1.0000
B13 B 1 0.25000 0.55190 0.75000 1.0000
B14 B 1 0.75000 0.44810 0.25000 1.0000
B15 B 1 0.25000 0.44810 0.25000 1.0000
B16 B 1 0.75000 0.55190 0.75000 1.0000
B17 B 1 0.31380 0.25000 0.11270 1.0000
B18 B 1 0.68620 0.75000 0.88730 1.0000
B19 B 1 0.18620 0.75000 0.61270 1.0000
B20 B 1 0.81380 0.25000 0.38730 1.0000
B21 B 1 1.00000 0.06380 0.36270 1.0000
B22 B 1 1.00000 0.93620 0.63730 1.0000
B23 B 1 0.50000 0.93620 0.86270 1.0000
B24 B 1 0.50000 0.06380 0.13730 1.0000
B25 B 1 0.18620 0.25000 0.38730 1.0000
B26 B 1 0.81380 0.75000 0.61270 1.0000
B27 B 1 0.31380 0.75000 0.88730 1.0000
B28 B 1 0.68620 0.25000 0.11270 1.0000
B29 B 1 0.50000 0.56380 0.86270 1.0000
B30 B 1 0.50000 0.43620 0.13730 1.0000
B31 B 1 1.00000 0.43620 0.36270 1.0000
B32 B 1 1.00000 0.56380 0.63730 1.0000
#End of data_7_EQOCOC01

data_8_MIHHIV
_chemical_name_common		'ZIF22Â  '
_chemical_formula_structural	'Zn(5abIm)2'
_chemical_formula_sum		'Ar1 B2'
_citation_special_details	'original source structure doi: 10.1038/nmat1927'
;
File: MIHHIV.cif.
;
_cell_length_a			14.97825
_cell_length_b			14.97825
_cell_length_c			14.97825
_cell_angle_alpha		90.00000
_cell_angle_beta		90.00000
_cell_angle_gamma		90.00000
_cell_volume			3360.33759
_cell_formula_units_Z		192
_symmetry_space_group_name_H-M	'P 1'
_symmetry_Int_Tables_number	1
loop_
_symmetry_equiv_pos_site_id
_symmetry_equiv_pos_as_xyz
1 x,y,z
loop_
_atom_site_label
_atom_site_type_symbol
_atom_site_symmetry_multiplicity
_atom_site_fract_x
_atom_site_fract_y
_atom_site_fract_z
_atom_site_occupancy
Ar1 Ar 1 0.24978 0.15875 0.06554 1.0000
Ar2 Ar 1 0.75022 0.84125 0.93446 1.0000
Ar3 Ar 1 0.75022 0.84125 0.06554 1.0000
Ar4 Ar 1 0.24978 0.15875 0.93446 1.0000
Ar5 Ar 1 0.75022 0.15875 0.93446 1.0000
Ar6 Ar 1 0.24978 0.84125 0.06554 1.0000
Ar7 Ar 1 0.24978 0.84125 0.93446 1.0000
Ar8 Ar 1 0.75022 0.15875 0.06554 1.0000
Ar9 Ar 1 0.06554 0.24978 0.15875 1.0000
Ar10 Ar 1 0.93446 0.75022 0.84125 1.0000
Ar11 Ar 1 0.06554 0.75022 0.84125 1.0000
Ar12 Ar 1 0.93446 0.24978 0.15875 1.0000
Ar13 Ar 1 0.93446 0.75022 0.15875 1.0000
Ar14 Ar 1 0.06554 0.24978 0.84125 1.0000
Ar15 Ar 1 0.93446 0.24978 0.84125 1.0000
Ar16 Ar 1 0.06554 0.75022 0.15875 1.0000
Ar17 Ar 1 0.15875 0.06554 0.24978 1.0000
Ar18 Ar 1 0.84125 0.93446 0.75022 1.0000
Ar19 Ar 1 0.84125 0.06554 0.75022 1.0000
Ar20 Ar 1 0.15875 0.93446 0.24978 1.0000
Ar21 Ar 1 0.15875 0.93446 0.75022 1.0000
Ar22 Ar 1 0.84125 0.06554 0.24978 1.0000
Ar23 Ar 1 0.84125 0.93446 0.24978 1.0000
Ar24 Ar 1 0.15875 0.06554 0.75022 1.0000
Ar25 Ar 1 0.15875 0.24978 0.93446 1.0000
Ar26 Ar 1 0.84125 0.75022 0.06554 1.0000
Ar27 Ar 1 0.84125 0.75022 0.93446 1.0000
Ar28 Ar 1 0.15875 0.24978 0.06554 1.0000
Ar29 Ar 1 0.15875 0.75022 0.06554 1.0000
Ar30 Ar 1 0.84125 0.24978 0.93446 1.0000
Ar31 Ar 1 0.84125 0.24978 0.06554 1.0000
Ar32 Ar 1 0.15875 0.75022 0.93446 1.0000
Ar33 Ar 1 0.24978 0.06554 0.84125 1.0000
Ar34 Ar 1 0.75022 0.93446 0.15875 1.0000
Ar35 Ar 1 0.75022 0.06554 0.15875 1.0000
Ar36 Ar 1 0.24978 0.93446 0.84125 1.0000
Ar37 Ar 1 0.75022 0.93446 0.84125 1.0000
Ar38 Ar 1 0.24978 0.06554 0.15875 1.0000
Ar39 Ar 1 0.24978 0.93446 0.15875 1.0000
Ar40 Ar 1 0.75022 0.06554 0.84125 1.0000
Ar41 Ar 1 0.06554 0.15875 0.75022 1.0000
Ar42 Ar 1 0.93446 0.84125 0.24978 1.0000
Ar43 Ar 1 0.06554 0.84125 0.24978 1.0000
Ar44 Ar 1 0.93446 0.15875 0.75022 1.0000
Ar45 Ar 1 0.93446 0.15875 0.24978 1.0000
Ar46 Ar 1 0.06554 0.84125 0.75022 1.0000
Ar47 Ar 1 0.93446 0.84125 0.75022 1.0000
Ar48 Ar 1 0.06554 0.15875 0.24978 1.0000
Ar49 Ar 1 0.24978 0.65875 0.56554 1.0000
Ar50 Ar 1 0.75022 0.34125 0.43446 1.0000
Ar51 Ar 1 0.75022 0.34125 0.56554 1.0000
Ar52 Ar 1 0.24978 0.65875 0.43446 1.0000
Ar53 Ar 1 0.75022 0.65875 0.43446 1.0000
Ar54 Ar 1 0.24978 0.34125 0.56554 1.0000
Ar55 Ar 1 0.24978 0.34125 0.43446 1.0000
Ar56 Ar 1 0.75022 0.65875 0.56554 1.0000
Ar57 Ar 1 0.06554 0.74978 0.65875 1.0000
Ar58 Ar 1 0.93446 0.25022 0.34125 1.0000
Ar59 Ar 1 0.06554 0.25022 0.34125 1.0000
Ar60 Ar 1 0.93446 0.74978 0.65875 1.0000
Ar61 Ar 1 0.93446 0.25022 0.65875 1.0000
Ar62 Ar 1 0.06554 0.74978 0.34125 1.0000
Ar63 Ar 1 0.93446 0.74978 0.34125 1.0000
Ar64 Ar 1 0.06554 0.25022 0.65875 1.0000
Ar65 Ar 1 0.15875 0.56554 0.74978 1.0000
Ar66 Ar 1 0.84125 0.43446 0.25022 1.0000
Ar67 Ar 1 0.84125 0.56554 0.25022 1.0000
Ar68 Ar 1 0.15875 0.43446 0.74978 1.0000
Ar69 Ar 1 0.15875 0.43446 0.25022 1.0000
Ar70 Ar 1 0.84125 0.56554 0.74978 1.0000
Ar71 Ar 1 0.84125 0.43446 0.74978 1.0000
Ar72 Ar 1 0.15875 0.56554 0.25022 1.0000
Ar73 Ar 1 0.15875 0.74978 0.43446 1.0000
Ar74 Ar 1 0.84125 0.25022 0.56554 1.0000
Ar75 Ar 1 0.84125 0.25022 0.43446 1.0000
Ar76 Ar 1 0.15875 0.74978 0.56554 1.0000
Ar77 Ar 1 0.15875 0.25022 0.56554 1.0000
Ar78 Ar 1 0.84125 0.74978 0.43446 1.0000
Ar79 Ar 1 0.84125 0.74978 0.56554 1.0000
Ar80 Ar 1 0.15875 0.25022 0.43446 1.0000
Ar81 Ar 1 0.24978 0.56554 0.34125 1.0000
Ar82 Ar 1 0.75022 0.43446 0.65875 1.0000
Ar83 Ar 1 0.75022 0.56554 0.65875 1.0000
Ar84 Ar 1 0.24978 0.43446 0.34125 1.0000
Ar85 Ar 1 0.75022 0.43446 0.34125 1.0000
Ar86 Ar 1 0.24978 0.56554 0.65875 1.0000
Ar87 Ar 1 0.24978 0.43446 0.65875 1.0000
Ar88 Ar 1 0.75022 0.56554 0.34125 1.0000
Ar89 Ar 1 0.06554 0.65875 0.25022 1.0000
Ar90 Ar 1 0.93446 0.34125 0.74978 1.0000
Ar91 Ar 1 0.06554 0.34125 0.74978 1.0000
Ar92 Ar 1 0.93446 0.65875 0.25022 1.0000
Ar93 Ar 1 0.93446 0.65875 0.74978 1.0000
Ar94 Ar 1 0.06554 0.34125 0.25022 1.0000
Ar95 Ar 1 0.93446 0.34125 0.25022 1.0000
Ar96 Ar 1 0.06554 0.65875 0.74978 1.0000
Ar97 Ar 1 0.74978 0.15875 0.56554 1.0000
Ar98 Ar 1 0.25022 0.84125 0.43446 1.0000
Ar99 Ar 1 0.25022 0.84125 0.56554 1.0000
Ar100 Ar 1 0.74978 0.15875 0.43446 1.0000
Ar101 Ar 1 0.25022 0.15875 0.43446 1.0000
Ar102 Ar 1 0.74978 0.84125 0.56554 1.0000
Ar103 Ar 1 0.74978 0.84125 0.43446 1.0000
Ar104 Ar 1 0.25022 0.15875 0.56554 1.0000
Ar105 Ar 1 0.56554 0.24978 0.65875 1.0000
Ar106 Ar 1 0.43446 0.75022 0.34125 1.0000
Ar107 Ar 1 0.56554 0.75022 0.34125 1.0000
Ar108 Ar 1 0.43446 0.24978 0.65875 1.0000
Ar109 Ar 1 0.43446 0.75022 0.65875 1.0000
Ar110 Ar 1 0.56554 0.24978 0.34125 1.0000
Ar111 Ar 1 0.43446 0.24978 0.34125 1.0000
Ar112 Ar 1 0.56554 0.75022 0.65875 1.0000
Ar113 Ar 1 0.65875 0.06554 0.74978 1.0000
Ar114 Ar 1 0.34125 0.93446 0.25022 1.0000
Ar115 Ar 1 0.34125 0.06554 0.25022 1.0000
Ar116 Ar 1 0.65875 0.93446 0.74978 1.0000
Ar117 Ar 1 0.65875 0.93446 0.25022 1.0000
Ar118 Ar 1 0.34125 0.06554 0.74978 1.0000
Ar119 Ar 1 0.34125 0.93446 0.74978 1.0000
Ar120 Ar 1 0.65875 0.06554 0.25022 1.0000
Ar121 Ar 1 0.65875 0.24978 0.43446 1.0000
Ar122 Ar 1 0.34125 0.75022 0.56554 1.0000
Ar123 Ar 1 0.34125 0.75022 0.43446 1.0000
Ar124 Ar 1 0.65875 0.24978 0.56554 1.0000
Ar125 Ar 1 0.65875 0.75022 0.56554 1.0000
Ar126 Ar 1 0.34125 0.24978 0.43446 1.0000
Ar127 Ar 1 0.34125 0.24978 0.56554 1.0000
Ar128 Ar 1 0.65875 0.75022 0.43446 1.0000
Ar129 Ar 1 0.74978 0.06554 0.34125 1.0000
Ar130 Ar 1 0.25022 0.93446 0.65875 1.0000
Ar131 Ar 1 0.25022 0.06554 0.65875 1.0000
Ar132 Ar 1 0.74978 0.93446 0.34125 1.0000
Ar133 Ar 1 0.25022 0.93446 0.34125 1.0000
Ar134 Ar 1 0.74978 0.06554 0.65875 1.0000
Ar135 Ar 1 0.74978 0.93446 0.65875 1.0000
Ar136 Ar 1 0.25022 0.06554 0.34125 1.0000
Ar137 Ar 1 0.56554 0.15875 0.25022 1.0000
Ar138 Ar 1 0.43446 0.84125 0.74978 1.0000
Ar139 Ar 1 0.56554 0.84125 0.74978 1.0000
Ar140 Ar 1 0.43446 0.15875 0.25022 1.0000
Ar141 Ar 1 0.43446 0.15875 0.74978 1.0000
Ar142 Ar 1 0.56554 0.84125 0.25022 1.0000
Ar143 Ar 1 0.43446 0.84125 0.25022 1.0000
Ar144 Ar 1 0.56554 0.15875 0.74978 1.0000
Ar145 Ar 1 0.74978 0.65875 0.06554 1.0000
Ar146 Ar 1 0.25022 0.34125 0.93446 1.0000
Ar147 Ar 1 0.25022 0.34125 0.06554 1.0000
Ar148 Ar 1 0.74978 0.65875 0.93446 1.0000
Ar149 Ar 1 0.25022 0.65875 0.93446 1.0000
Ar150 Ar 1 0.74978 0.34125 0.06554 1.0000
Ar151 Ar 1 0.74978 0.34125 0.93446 1.0000
Ar152 Ar 1 0.25022 0.65875 0.06554 1.0000
Ar153 Ar 1 0.56554 0.74978 0.15875 1.0000
Ar154 Ar 1 0.43446 0.25022 0.84125 1.0000
Ar155 Ar 1 0.56554 0.25022 0.84125 1.0000
Ar156 Ar 1 0.43446 0.74978 0.15875 1.0000
Ar157 Ar 1 0.43446 0.25022 0.15875 1.0000
Ar158 Ar 1 0.56554 0.74978 0.84125 1.0000
Ar159 Ar 1 0.43446 0.74978 0.84125 1.0000
Ar160 Ar 1 0.56554 0.25022 0.15875 1.0000
Ar161 Ar 1 0.65875 0.56554 0.24978 1.0000
Ar162 Ar 1 0.34125 0.43446 0.75022 1.0000
Ar163 Ar 1 0.34125 0.56554 0.75022 1.0000
Ar164 Ar 1 0.65875 0.43446 0.24978 1.0000
Ar165 Ar 1 0.65875 0.43446 0.75022 1.0000
Ar166 Ar 1 0.34125 0.56554 0.24978 1.0000
Ar167 Ar 1 0.34125 0.43446 0.24978 1.0000
Ar168 Ar 1 0.65875 0.56554 0.75022 1.0000
Ar169 Ar 1 0.65875 0.74978 0.93446 1.0000
Ar170 Ar 1 0.34125 0.25022 0.06554 1.0000
Ar171 Ar 1 0.34125 0.25022 0.93446 1.0000
Ar172 Ar 1 0.65875 0.74978 0.06554 1.0000
Ar173 Ar 1 0.65875 0.25022 0.06554 1.0000
Ar174 Ar 1 0.34125 0.74978 0.93446 1.0000
Ar175 Ar 1 0.34125 0.74978 0.06554 1.0000
Ar176 Ar 1 0.65875 0.25022 0.93446 1.0000
Ar177 Ar 1 0.74978 0.56554 0.84125 1.0000
Ar178 Ar 1 0.25022 0.43446 0.15875 1.0000
Ar179 Ar 1 0.25022 0.56554 0.15875 1.0000
Ar180 Ar 1 0.74978 0.43446 0.84125 1.0000
Ar181 Ar 1 0.25022 0.43446 0.84125 1.0000
Ar182 Ar 1 0.74978 0.56554 0.15875 1.0000
Ar183 Ar 1 0.74978 0.43446 0.15875 1.0000
Ar184 Ar 1 0.25022 0.56554 0.84125 1.0000
Ar185 Ar 1 0.56554 0.65875 0.75022 1.0000
Ar186 Ar 1 0.43446 0.34125 0.24978 1.0000
Ar187 Ar 1 0.56554 0.34125 0.24978 1.0000
Ar188 Ar 1 0.43446 0.65875 0.75022 1.0000
Ar189 Ar 1 0.43446 0.65875 0.24978 1.0000
Ar190 Ar 1 0.56554 0.34125 0.75022 1.0000
Ar191 Ar 1 0.43446 0.34125 0.75022 1.0000
Ar192 Ar 1 0.56554 0.65875 0.24978 1.0000
B1 B 1 0.20642 0.20642 0.08300 1.0000
B2 B 1 0.79358 0.79358 0.91700 1.0000
B3 B 1 0.79358 0.79358 0.08300 1.0000
B4 B 1 0.20642 0.20642 0.91700 1.0000
B5 B 1 0.79358 0.20642 0.91700 1.0000
B6 B 1 0.20642 0.79358 0.08300 1.0000
B7 B 1 0.20642 0.79358 0.91700 1.0000
B8 B 1 0.79358 0.20642 0.08300 1.0000
B9 B 1 0.08300 0.20642 0.20642 1.0000
B10 B 1 0.91700 0.79358 0.79358 1.0000
B11 B 1 0.08300 0.79358 0.79358 1.0000
B12 B 1 0.91700 0.20642 0.20642 1.0000
B13 B 1 0.91700 0.79358 0.20642 1.0000
B14 B 1 0.08300 0.20642 0.79358 1.0000
B15 B 1 0.91700 0.20642 0.79358 1.0000
B16 B 1 0.08300 0.79358 0.20642 1.0000
B17 B 1 0.20642 0.08300 0.20642 1.0000
B18 B 1 0.79358 0.91700 0.79358 1.0000
B19 B 1 0.79358 0.08300 0.79358 1.0000
B20 B 1 0.20642 0.91700 0.20642 1.0000
B21 B 1 0.20642 0.91700 0.79358 1.0000
B22 B 1 0.79358 0.08300 0.20642 1.0000
B23 B 1 0.79358 0.91700 0.20642 1.0000
B24 B 1 0.20642 0.08300 0.79358 1.0000
B25 B 1 0.20642 0.70642 0.58300 1.0000
B26 B 1 0.79358 0.29358 0.41700 1.0000
B27 B 1 0.79358 0.29358 0.58300 1.0000
B28 B 1 0.20642 0.70642 0.41700 1.0000
B29 B 1 0.79358 0.70642 0.41700 1.0000
B30 B 1 0.20642 0.29358 0.58300 1.0000
B31 B 1 0.20642 0.29358 0.41700 1.0000
B32 B 1 0.79358 0.70642 0.58300 1.0000
B33 B 1 0.08300 0.70642 0.70642 1.0000
B34 B 1 0.91700 0.29358 0.29358 1.0000
B35 B 1 0.08300 0.29358 0.29358 1.0000
B36 B 1 0.91700 0.70642 0.70642 1.0000
B37 B 1 0.91700 0.29358 0.70642 1.0000
B38 B 1 0.08300 0.70642 0.29358 1.0000
B39 B 1 0.91700 0.70642 0.29358 1.0000
B40 B 1 0.08300 0.29358 0.70642 1.0000
B41 B 1 0.20642 0.58300 0.70642 1.0000
B42 B 1 0.79358 0.41700 0.29358 1.0000
B43 B 1 0.79358 0.58300 0.29358 1.0000
B44 B 1 0.20642 0.41700 0.70642 1.0000
B45 B 1 0.20642 0.41700 0.29358 1.0000
B46 B 1 0.79358 0.58300 0.70642 1.0000
B47 B 1 0.79358 0.41700 0.70642 1.0000
B48 B 1 0.20642 0.58300 0.29358 1.0000
B49 B 1 0.70642 0.20642 0.58300 1.0000
B50 B 1 0.29358 0.79358 0.41700 1.0000
B51 B 1 0.29358 0.79358 0.58300 1.0000
B52 B 1 0.70642 0.20642 0.41700 1.0000
B53 B 1 0.29358 0.20642 0.41700 1.0000
B54 B 1 0.70642 0.79358 0.58300 1.0000
B55 B 1 0.70642 0.79358 0.41700 1.0000
B56 B 1 0.29358 0.20642 0.58300 1.0000
B57 B 1 0.58300 0.20642 0.70642 1.0000
B58 B 1 0.41700 0.79358 0.29358 1.0000
B59 B 1 0.58300 0.79358 0.29358 1.0000
B60 B 1 0.41700 0.20642 0.70642 1.0000
B61 B 1 0.41700 0.79358 0.70642 1.0000
B62 B 1 0.58300 0.20642 0.29358 1.0000
B63 B 1 0.41700 0.20642 0.29358 1.0000
B64 B 1 0.58300 0.79358 0.70642 1.0000
B65 B 1 0.70642 0.08300 0.70642 1.0000
B66 B 1 0.29358 0.91700 0.29358 1.0000
B67 B 1 0.29358 0.08300 0.29358 1.0000
B68 B 1 0.70642 0.91700 0.70642 1.0000
B69 B 1 0.70642 0.91700 0.29358 1.0000
B70 B 1 0.29358 0.08300 0.70642 1.0000
B71 B 1 0.29358 0.91700 0.70642 1.0000
B72 B 1 0.70642 0.08300 0.29358 1.0000
B73 B 1 0.70642 0.70642 0.08300 1.0000
B74 B 1 0.29358 0.29358 0.91700 1.0000
B75 B 1 0.29358 0.29358 0.08300 1.0000
B76 B 1 0.70642 0.70642 0.91700 1.0000
B77 B 1 0.29358 0.70642 0.91700 1.0000
B78 B 1 0.70642 0.29358 0.08300 1.0000
B79 B 1 0.70642 0.29358 0.91700 1.0000
B80 B 1 0.29358 0.70642 0.08300 1.0000
B81 B 1 0.58300 0.70642 0.20642 1.0000
B82 B 1 0.41700 0.29358 0.79358 1.0000
B83 B 1 0.58300 0.29358 0.79358 1.0000
B84 B 1 0.41700 0.70642 0.20642 1.0000
B85 B 1 0.41700 0.29358 0.20642 1.0000
B86 B 1 0.58300 0.70642 0.79358 1.0000
B87 B 1 0.41700 0.70642 0.79358 1.0000
B88 B 1 0.58300 0.29358 0.20642 1.0000
B89 B 1 0.70642 0.58300 0.20642 1.0000
B90 B 1 0.29358 0.41700 0.79358 1.0000
B91 B 1 0.29358 0.58300 0.79358 1.0000
B92 B 1 0.70642 0.41700 0.20642 1.0000
B93 B 1 0.70642 0.41700 0.79358 1.0000
B94 B 1 0.29358 0.58300 0.20642 1.0000
B95 B 1 0.29358 0.41700 0.20642 1.0000
B96 B 1 0.70642 0.58300 0.79358 1.0000
B97 B 1 0.23483 0.15371 0.00000 1.0000
B98 B 1 0.76517 0.84629 0.00000 1.0000
B99 B 1 0.76517 0.15371 0.00000 1.0000
B100 B 1 0.23483 0.84629 0.00000 1.0000
B101 B 1 0.00000 0.23483 0.15371 1.0000
B102 B 1 0.00000 0.76517 0.84629 1.0000
B103 B 1 0.00000 0.76517 0.15371 1.0000
B104 B 1 0.00000 0.23483 0.84629 1.0000
B105 B 1 0.15371 0.00000 0.23483 1.0000
B106 B 1 0.84629 0.00000 0.76517 1.0000
B107 B 1 0.15371 0.00000 0.76517 1.0000
B108 B 1 0.84629 0.00000 0.23483 1.0000
B109 B 1 0.15371 0.23483 0.00000 1.0000
B110 B 1 0.84629 0.76517 0.00000 1.0000
B111 B 1 0.15371 0.76517 0.00000 1.0000
B112 B 1 0.84629 0.23483 0.00000 1.0000
B113 B 1 0.23483 0.00000 0.84629 1.0000
B114 B 1 0.76517 0.00000 0.15371 1.0000
B115 B 1 0.76517 0.00000 0.84629 1.0000
B116 B 1 0.23483 0.00000 0.15371 1.0000
B117 B 1 0.00000 0.15371 0.76517 1.0000
B118 B 1 0.00000 0.84629 0.23483 1.0000
B119 B 1 0.00000 0.15371 0.23483 1.0000
B120 B 1 0.00000 0.84629 0.76517 1.0000
B121 B 1 0.23483 0.65371 0.50000 1.0000
B122 B 1 0.76517 0.34629 0.50000 1.0000
B123 B 1 0.76517 0.65371 0.50000 1.0000
B124 B 1 0.23483 0.34629 0.50000 1.0000
B125 B 1 0.00000 0.73483 0.65371 1.0000
B126 B 1 0.00000 0.26517 0.34629 1.0000
B127 B 1 0.00000 0.26517 0.65371 1.0000
B128 B 1 0.00000 0.73483 0.34629 1.0000
B129 B 1 0.15371 0.50000 0.73483 1.0000
B130 B 1 0.84629 0.50000 0.26517 1.0000
B131 B 1 0.15371 0.50000 0.26517 1.0000
B132 B 1 0.84629 0.50000 0.73483 1.0000
B133 B 1 0.15371 0.73483 0.50000 1.0000
B134 B 1 0.84629 0.26517 0.50000 1.0000
B135 B 1 0.15371 0.26517 0.50000 1.0000
B136 B 1 0.84629 0.73483 0.50000 1.0000
B137 B 1 0.23483 0.50000 0.34629 1.0000
B138 B 1 0.76517 0.50000 0.65371 1.0000
B139 B 1 0.76517 0.50000 0.34629 1.0000
B140 B 1 0.23483 0.50000 0.65371 1.0000
B141 B 1 0.00000 0.65371 0.26517 1.0000
B142 B 1 0.00000 0.34629 0.73483 1.0000
B143 B 1 0.00000 0.65371 0.73483 1.0000
B144 B 1 0.00000 0.34629 0.26517 1.0000
B145 B 1 0.73483 0.15371 0.50000 1.0000
B146 B 1 0.26517 0.84629 0.50000 1.0000
B147 B 1 0.26517 0.15371 0.50000 1.0000
B148 B 1 0.73483 0.84629 0.50000 1.0000
B149 B 1 0.50000 0.23483 0.65371 1.0000
B150 B 1 0.50000 0.76517 0.34629 1.0000
B151 B 1 0.50000 0.76517 0.65371 1.0000
B152 B 1 0.50000 0.23483 0.34629 1.0000
B153 B 1 0.65371 0.00000 0.73483 1.0000
B154 B 1 0.34629 0.00000 0.26517 1.0000
B155 B 1 0.65371 0.00000 0.26517 1.0000
B156 B 1 0.34629 0.00000 0.73483 1.0000
B157 B 1 0.65371 0.23483 0.50000 1.0000
B158 B 1 0.34629 0.76517 0.50000 1.0000
B159 B 1 0.65371 0.76517 0.50000 1.0000
B160 B 1 0.34629 0.23483 0.50000 1.0000
B161 B 1 0.73483 0.00000 0.34629 1.0000
B162 B 1 0.26517 0.00000 0.65371 1.0000
B163 B 1 0.26517 0.00000 0.34629 1.0000
B164 B 1 0.73483 0.00000 0.65371 1.0000
B165 B 1 0.50000 0.15371 0.26517 1.0000
B166 B 1 0.50000 0.84629 0.73483 1.0000
B167 B 1 0.50000 0.15371 0.73483 1.0000
B168 B 1 0.50000 0.84629 0.26517 1.0000
B169 B 1 0.73483 0.65371 0.00000 1.0000
B170 B 1 0.26517 0.34629 0.00000 1.0000
B171 B 1 0.26517 0.65371 0.00000 1.0000
B172 B 1 0.73483 0.34629 0.00000 1.0000
B173 B 1 0.50000 0.73483 0.15371 1.0000
B174 B 1 0.50000 0.26517 0.84629 1.0000
B175 B 1 0.50000 0.26517 0.15371 1.0000
B176 B 1 0.50000 0.73483 0.84629 1.0000
B177 B 1 0.65371 0.50000 0.23483 1.0000
B178 B 1 0.34629 0.50000 0.76517 1.0000
B179 B 1 0.65371 0.50000 0.76517 1.0000
B180 B 1 0.34629 0.50000 0.23483 1.0000
B181 B 1 0.65371 0.73483 0.00000 1.0000
B182 B 1 0.34629 0.26517 0.00000 1.0000
B183 B 1 0.65371 0.26517 0.00000 1.0000
B184 B 1 0.34629 0.73483 0.00000 1.0000
B185 B 1 0.73483 0.50000 0.84629 1.0000
B186 B 1 0.26517 0.50000 0.15371 1.0000
B187 B 1 0.26517 0.50000 0.84629 1.0000
B188 B 1 0.73483 0.50000 0.15371 1.0000
B189 B 1 0.50000 0.65371 0.76517 1.0000
B190 B 1 0.50000 0.34629 0.23483 1.0000
B191 B 1 0.50000 0.65371 0.23483 1.0000
B192 B 1 0.50000 0.34629 0.76517 1.0000
B193 B 1 0.30751 0.19249 0.06633 1.0000
B194 B 1 0.69248 0.80752 0.93367 1.0000
B195 B 1 0.69248 0.80752 0.06633 1.0000
B196 B 1 0.30751 0.19249 0.93367 1.0000
B197 B 1 0.69248 0.19249 0.93367 1.0000
B198 B 1 0.30751 0.80752 0.06633 1.0000
B199 B 1 0.30751 0.80752 0.93367 1.0000
B200 B 1 0.69248 0.19249 0.06633 1.0000
B201 B 1 0.06633 0.30751 0.19249 1.0000
B202 B 1 0.93367 0.69248 0.80752 1.0000
B203 B 1 0.06633 0.69248 0.80752 1.0000
B204 B 1 0.93367 0.30751 0.19249 1.0000
B205 B 1 0.93367 0.69248 0.19249 1.0000
B206 B 1 0.06633 0.30751 0.80752 1.0000
B207 B 1 0.93367 0.30751 0.80752 1.0000
B208 B 1 0.06633 0.69248 0.19249 1.0000
B209 B 1 0.19249 0.06633 0.30751 1.0000
B210 B 1 0.80752 0.93367 0.69248 1.0000
B211 B 1 0.80752 0.06633 0.69248 1.0000
B212 B 1 0.19249 0.93367 0.30751 1.0000
B213 B 1 0.19249 0.93367 0.69248 1.0000
B214 B 1 0.80752 0.06633 0.30751 1.0000
B215 B 1 0.80752 0.93367 0.30751 1.0000
B216 B 1 0.19249 0.06633 0.69248 1.0000
B217 B 1 0.19249 0.30751 0.93367 1.0000
B218 B 1 0.80752 0.69248 0.06633 1.0000
B219 B 1 0.80752 0.69248 0.93367 1.0000
B220 B 1 0.19249 0.30751 0.06633 1.0000
B221 B 1 0.19249 0.69248 0.06633 1.0000
B222 B 1 0.80752 0.30751 0.93367 1.0000
B223 B 1 0.80752 0.30751 0.06633 1.0000
B224 B 1 0.19249 0.69248 0.93367 1.0000
B225 B 1 0.30751 0.06633 0.80752 1.0000
B226 B 1 0.69248 0.93367 0.19249 1.0000
B227 B 1 0.69248 0.06633 0.19249 1.0000
B228 B 1 0.30751 0.93367 0.80752 1.0000
B229 B 1 0.69248 0.93367 0.80752 1.0000
B230 B 1 0.30751 0.06633 0.19249 1.0000
B231 B 1 0.30751 0.93367 0.19249 1.0000
B232 B 1 0.69248 0.06633 0.80752 1.0000
B233 B 1 0.06633 0.19249 0.69248 1.0000
B234 B 1 0.93367 0.80752 0.30751 1.0000
B235 B 1 0.06633 0.80752 0.30751 1.0000
B236 B 1 0.93367 0.19249 0.69248 1.0000
B237 B 1 0.93367 0.19249 0.30751 1.0000
B238 B 1 0.06633 0.80752 0.69248 1.0000
B239 B 1 0.93367 0.80752 0.69248 1.0000
B240 B 1 0.06633 0.19249 0.30751 1.0000
B241 B 1 0.30751 0.69248 0.56633 1.0000
B242 B 1 0.69248 0.30751 0.43367 1.0000
B243 B 1 0.69248 0.30751 0.56633 1.0000
B244 B 1 0.30751 0.69248 0.43367 1.0000
B245 B 1 0.69248 0.69248 0.43367 1.0000
B246 B 1 0.30751 0.30751 0.56633 1.0000
B247 B 1 0.30751 0.30751 0.43367 1.0000
B248 B 1 0.69248 0.69248 0.56633 1.0000
B249 B 1 0.19249 0.56633 0.80752 1.0000
B250 B 1 0.80752 0.43367 0.19249 1.0000
B251 B 1 0.80752 0.56633 0.19249 1.0000
B252 B 1 0.19249 0.43367 0.80752 1.0000
B253 B 1 0.19249 0.43367 0.19249 1.0000
B254 B 1 0.80752 0.56633 0.80752 1.0000
B255 B 1 0.80752 0.43367 0.80752 1.0000
B256 B 1 0.19249 0.56633 0.19249 1.0000
B257 B 1 0.19249 0.80752 0.43367 1.0000
B258 B 1 0.80752 0.19249 0.56633 1.0000
B259 B 1 0.80752 0.19249 0.43367 1.0000
B260 B 1 0.19249 0.80752 0.56633 1.0000
B261 B 1 0.19249 0.19249 0.56633 1.0000
B262 B 1 0.80752 0.80752 0.43367 1.0000
B263 B 1 0.80752 0.80752 0.56633 1.0000
B264 B 1 0.19249 0.19249 0.43367 1.0000
B265 B 1 0.30751 0.56633 0.30751 1.0000
B266 B 1 0.69248 0.43367 0.69248 1.0000
B267 B 1 0.69248 0.56633 0.69248 1.0000
B268 B 1 0.30751 0.43367 0.30751 1.0000
B269 B 1 0.69248 0.43367 0.30751 1.0000
B270 B 1 0.30751 0.56633 0.69248 1.0000
B271 B 1 0.30751 0.43367 0.69248 1.0000
B272 B 1 0.69248 0.56633 0.30751 1.0000
B273 B 1 0.56633 0.30751 0.69248 1.0000
B274 B 1 0.43367 0.69248 0.30751 1.0000
B275 B 1 0.56633 0.69248 0.30751 1.0000
B276 B 1 0.43367 0.30751 0.69248 1.0000
B277 B 1 0.43367 0.69248 0.69248 1.0000
B278 B 1 0.56633 0.30751 0.30751 1.0000
B279 B 1 0.43367 0.30751 0.30751 1.0000
B280 B 1 0.56633 0.69248 0.69248 1.0000
B281 B 1 0.56633 0.19249 0.19249 1.0000
B282 B 1 0.43367 0.80752 0.80752 1.0000
B283 B 1 0.56633 0.80752 0.80752 1.0000
B284 B 1 0.43367 0.19249 0.19249 1.0000
B285 B 1 0.43367 0.19249 0.80752 1.0000
B286 B 1 0.56633 0.80752 0.19249 1.0000
B287 B 1 0.43367 0.80752 0.19249 1.0000
B288 B 1 0.56633 0.19249 0.80752 1.0000
B289 B 1 0.24761 0.10197 0.10197 1.0000
B290 B 1 0.75239 0.89803 0.89803 1.0000
B291 B 1 0.75239 0.89803 0.10197 1.0000
B292 B 1 0.24761 0.10197 0.89803 1.0000
B293 B 1 0.75239 0.10197 0.89803 1.0000
B294 B 1 0.24761 0.89803 0.10197 1.0000
B295 B 1 0.24761 0.89803 0.89803 1.0000
B296 B 1 0.75239 0.10197 0.10197 1.0000
B297 B 1 0.10197 0.24761 0.10197 1.0000
B298 B 1 0.89803 0.75239 0.89803 1.0000
B299 B 1 0.10197 0.75239 0.89803 1.0000
B300 B 1 0.89803 0.24761 0.10197 1.0000
B301 B 1 0.89803 0.75239 0.10197 1.0000
B302 B 1 0.10197 0.24761 0.89803 1.0000
B303 B 1 0.89803 0.24761 0.89803 1.0000
B304 B 1 0.10197 0.75239 0.10197 1.0000
B305 B 1 0.10197 0.10197 0.24761 1.0000
B306 B 1 0.89803 0.89803 0.75239 1.0000
B307 B 1 0.89803 0.10197 0.75239 1.0000
B308 B 1 0.10197 0.89803 0.24761 1.0000
B309 B 1 0.10197 0.89803 0.75239 1.0000
B310 B 1 0.89803 0.10197 0.24761 1.0000
B311 B 1 0.89803 0.89803 0.24761 1.0000
B312 B 1 0.10197 0.10197 0.75239 1.0000
B313 B 1 0.24761 0.60197 0.60197 1.0000
B314 B 1 0.75239 0.39803 0.39803 1.0000
B315 B 1 0.75239 0.39803 0.60197 1.0000
B316 B 1 0.24761 0.60197 0.39803 1.0000
B317 B 1 0.75239 0.60197 0.39803 1.0000
B318 B 1 0.24761 0.39803 0.60197 1.0000
B319 B 1 0.24761 0.39803 0.39803 1.0000
B320 B 1 0.75239 0.60197 0.60197 1.0000
B321 B 1 0.10197 0.74761 0.60197 1.0000
B322 B 1 0.89803 0.25239 0.39803 1.0000
B323 B 1 0.10197 0.25239 0.39803 1.0000
B324 B 1 0.89803 0.74761 0.60197 1.0000
B325 B 1 0.89803 0.25239 0.60197 1.0000
B326 B 1 0.10197 0.74761 0.39803 1.0000
B327 B 1 0.89803 0.74761 0.39803 1.0000
B328 B 1 0.10197 0.25239 0.60197 1.0000
B329 B 1 0.10197 0.60197 0.74761 1.0000
B330 B 1 0.89803 0.39803 0.25239 1.0000
B331 B 1 0.89803 0.60197 0.25239 1.0000
B332 B 1 0.10197 0.39803 0.74761 1.0000
B333 B 1 0.10197 0.39803 0.25239 1.0000
B334 B 1 0.89803 0.60197 0.74761 1.0000
B335 B 1 0.89803 0.39803 0.74761 1.0000
B336 B 1 0.10197 0.60197 0.25239 1.0000
B337 B 1 0.74761 0.10197 0.60197 1.0000
B338 B 1 0.25239 0.89803 0.39803 1.0000
B339 B 1 0.25239 0.89803 0.60197 1.0000
B340 B 1 0.74761 0.10197 0.39803 1.0000
B341 B 1 0.25239 0.10197 0.39803 1.0000
B342 B 1 0.74761 0.89803 0.60197 1.0000
B343 B 1 0.74761 0.89803 0.39803 1.0000
B344 B 1 0.25239 0.10197 0.60197 1.0000
B345 B 1 0.60197 0.24761 0.60197 1.0000
B346 B 1 0.39803 0.75239 0.39803 1.0000
B347 B 1 0.60197 0.75239 0.39803 1.0000
B348 B 1 0.39803 0.24761 0.60197 1.0000
B349 B 1 0.39803 0.75239 0.60197 1.0000
B350 B 1 0.60197 0.24761 0.39803 1.0000
B351 B 1 0.39803 0.24761 0.39803 1.0000
B352 B 1 0.60197 0.75239 0.60197 1.0000
B353 B 1 0.60197 0.10197 0.74761 1.0000
B354 B 1 0.39803 0.89803 0.25239 1.0000
B355 B 1 0.39803 0.10197 0.25239 1.0000
B356 B 1 0.60197 0.89803 0.74761 1.0000
B357 B 1 0.60197 0.89803 0.25239 1.0000
B358 B 1 0.39803 0.10197 0.74761 1.0000
B359 B 1 0.39803 0.89803 0.74761 1.0000
B360 B 1 0.60197 0.10197 0.25239 1.0000
B361 B 1 0.74761 0.60197 0.10197 1.0000
B362 B 1 0.25239 0.39803 0.89803 1.0000
B363 B 1 0.25239 0.39803 0.10197 1.0000
B364 B 1 0.74761 0.60197 0.89803 1.0000
B365 B 1 0.25239 0.60197 0.89803 1.0000
B366 B 1 0.74761 0.39803 0.10197 1.0000
B367 B 1 0.74761 0.39803 0.89803 1.0000
B368 B 1 0.25239 0.60197 0.10197 1.0000
B369 B 1 0.60197 0.74761 0.10197 1.0000
B370 B 1 0.39803 0.25239 0.89803 1.0000
B371 B 1 0.60197 0.25239 0.89803 1.0000
B372 B 1 0.39803 0.74761 0.10197 1.0000
B373 B 1 0.39803 0.25239 0.10197 1.0000
B374 B 1 0.60197 0.74761 0.89803 1.0000
B375 B 1 0.39803 0.74761 0.89803 1.0000
B376 B 1 0.60197 0.25239 0.10197 1.0000
B377 B 1 0.60197 0.60197 0.24761 1.0000
B378 B 1 0.39803 0.39803 0.75239 1.0000
B379 B 1 0.39803 0.60197 0.75239 1.0000
B380 B 1 0.60197 0.39803 0.24761 1.0000
B381 B 1 0.60197 0.39803 0.75239 1.0000
B382 B 1 0.39803 0.60197 0.24761 1.0000
B383 B 1 0.39803 0.39803 0.24761 1.0000
B384 B 1 0.60197 0.60197 0.75239 1.0000
#End of data_8_MIHHIV

data_9_VEJYUF01
_chemical_formula_structural	'Zn(Im)2'
_chemical_formula_sum		'Ar1 B2'
_citation_special_details	'original source structure doi: 10.1002/chem.200700181'
;
File: VEJYUF01.cif.
;
_cell_length_a			5.07771
_cell_length_b			5.10083
_cell_length_c			6.07748
_cell_angle_alpha		90.00000
_cell_angle_beta		90.00000
_cell_angle_gamma		90.00000
_cell_volume			157.40994
_cell_formula_units_Z		16
_symmetry_space_group_name_H-M	'P 1'
_symmetry_Int_Tables_number	1
loop_
_symmetry_equiv_pos_site_id
_symmetry_equiv_pos_as_xyz
1 x,y,z
loop_
_atom_site_label
_atom_site_type_symbol
_atom_site_symmetry_multiplicity
_atom_site_fract_x
_atom_site_fract_y
_atom_site_fract_z
_atom_site_occupancy
Ar1 Ar 1 0.20052 0.13963 0.40614 1.0000
Ar2 Ar 1 0.79948 0.86037 0.59386 1.0000
Ar3 Ar 1 0.29948 0.86037 0.90614 1.0000
Ar4 Ar 1 0.70052 0.13963 0.09386 1.0000
Ar5 Ar 1 0.79948 0.63963 0.09386 1.0000
Ar6 Ar 1 0.20052 0.36037 0.90614 1.0000
Ar7 Ar 1 0.70052 0.36037 0.59386 1.0000
Ar8 Ar 1 0.29948 0.63963 0.40614 1.0000
Ar9 Ar 1 0.50879 0.33582 0.31534 1.0000
Ar10 Ar 1 0.49121 0.66418 0.68466 1.0000
Ar11 Ar 1 0.99121 0.66418 0.81534 1.0000
Ar12 Ar 1 0.00879 0.33582 0.18466 1.0000
Ar13 Ar 1 0.49121 0.83582 0.18466 1.0000
Ar14 Ar 1 0.50879 0.16418 0.81534 1.0000
Ar15 Ar 1 0.00879 0.16418 0.68466 1.0000
Ar16 Ar 1 0.99121 0.83582 0.31534 1.0000
B1 B 1 0.38415 0.19885 0.37120 1.0000
B2 B 1 0.61585 0.80115 0.62880 1.0000
B3 B 1 0.11585 0.80115 0.87120 1.0000
B4 B 1 0.88415 0.19885 0.12880 1.0000
B5 B 1 0.61585 0.69885 0.12880 1.0000
B6 B 1 0.38415 0.30115 0.87120 1.0000
B7 B 1 0.88415 0.30115 0.62880 1.0000
B8 B 1 0.11585 0.69885 0.37120 1.0000
B9 B 1 0.63615 0.37160 0.43849 1.0000
B10 B 1 0.36385 0.62840 0.56151 1.0000
B11 B 1 0.86385 0.62840 0.93849 1.0000
B12 B 1 0.13615 0.37160 0.06152 1.0000
B13 B 1 0.36385 0.87160 0.06152 1.0000
B14 B 1 0.63615 0.12840 0.93849 1.0000
B15 B 1 0.13615 0.12840 0.56151 1.0000
B16 B 1 0.86385 0.87160 0.43849 1.0000
B17 B 1 0.38045 0.48465 0.32872 1.0000
B18 B 1 0.61955 0.51535 0.67128 1.0000
B19 B 1 0.11955 0.51535 0.82872 1.0000
B20 B 1 0.88045 0.48465 0.17128 1.0000
B21 B 1 0.61955 0.98465 0.17128 1.0000
B22 B 1 0.38045 0.01535 0.82872 1.0000
B23 B 1 0.88045 0.01535 0.67128 1.0000
B24 B 1 0.11955 0.98465 0.32872 1.0000
B25 B 1 0.59765 0.27525 0.17758 1.0000
B26 B 1 0.40235 0.72475 0.82242 1.0000
B27 B 1 0.90235 0.72475 0.67758 1.0000
B28 B 1 0.09765 0.27525 0.32242 1.0000
B29 B 1 0.40235 0.77525 0.32242 1.0000
B30 B 1 0.59765 0.22475 0.67758 1.0000
B31 B 1 0.09765 0.22475 0.82242 1.0000
B32 B 1 0.90235 0.77525 0.17758 1.0000
#End of data_9_VEJYUF01

data_10_CAGLIF
_chemical_formula_structural	'Fe(mIm)2'
_chemical_formula_sum		'Ar1 B2'
_citation_special_details	'original source structure doi: 10.1107/S0108270183007969'
;
File: CAGLIF.cif.
;
_cell_length_a			2.77253
_cell_length_b			2.77253
_cell_length_c			4.15285
_cell_angle_alpha		90.00000
_cell_angle_beta		90.00000
_cell_angle_gamma		120.00000
_cell_volume			27.64586
_cell_formula_units_Z		3
_symmetry_space_group_name_H-M	'P 1'
_symmetry_Int_Tables_number	1
loop_
_symmetry_equiv_pos_site_id
_symmetry_equiv_pos_as_xyz
1 x,y,z
loop_
_atom_site_label
_atom_site_type_symbol
_atom_site_symmetry_multiplicity
_atom_site_fract_x
_atom_site_fract_y
_atom_site_fract_z
_atom_site_occupancy
Ar1 Ar 1 0.00000 0.50000 0.33333 1.0000
Ar2 Ar 1 0.50000 0.50000 0.66667 1.0000
Ar3 Ar 1 0.50000 0.00000 0.00000 1.0000
B1 B 1 0.79200 0.20800 0.16667 1.0000
B2 B 1 0.79200 0.58400 0.50000 1.0000
B3 B 1 0.41600 0.20800 0.83333 1.0000
B4 B 1 0.20800 0.79200 0.16667 1.0000
B5 B 1 0.20800 0.41600 0.50000 1.0000
B6 B 1 0.58400 0.79200 0.83333 1.0000
#End of data_10_CAGLIF

data_11_VEJZEQ
_chemical_name_common		'ZIF9 '
_chemical_formula_structural	'Co(bIm)2'
_chemical_formula_sum		'Ar1 B2'
_citation_special_details	'original source structure doi: 10.1073/pnas.0602439103'
;
File: VEJZEQ.cif.
;
_cell_length_a			7.52609
_cell_length_b			7.52609
_cell_length_c			5.16540
_cell_angle_alpha		90.00000
_cell_angle_beta		90.00000
_cell_angle_gamma		120.00000
_cell_volume			253.38092
_cell_formula_units_Z		18
_symmetry_space_group_name_H-M	'P 1'
_symmetry_Int_Tables_number	1
loop_
_symmetry_equiv_pos_site_id
_symmetry_equiv_pos_as_xyz
1 x,y,z
loop_
_atom_site_label
_atom_site_type_symbol
_atom_site_symmetry_multiplicity
_atom_site_fract_x
_atom_site_fract_y
_atom_site_fract_z
_atom_site_occupancy
Ar1 Ar 1 0.39885 0.07006 0.34075 1.0000
Ar2 Ar 1 0.60115 0.92994 0.65925 1.0000
Ar3 Ar 1 0.92994 0.32879 0.34075 1.0000
Ar4 Ar 1 0.07006 0.67121 0.65925 1.0000
Ar5 Ar 1 0.67121 0.60115 0.34075 1.0000
Ar6 Ar 1 0.32879 0.39885 0.65925 1.0000
Ar7 Ar 1 0.06552 0.40339 0.67408 1.0000
Ar8 Ar 1 0.26782 0.26327 0.99258 1.0000
Ar9 Ar 1 0.59661 0.66212 0.67408 1.0000
Ar10 Ar 1 0.73673 0.00454 0.99258 1.0000
Ar11 Ar 1 0.33788 0.93448 0.67408 1.0000
Ar12 Ar 1 0.99546 0.73218 0.99258 1.0000
Ar13 Ar 1 0.73218 0.73673 0.00742 1.0000
Ar14 Ar 1 0.93448 0.59661 0.32592 1.0000
Ar15 Ar 1 0.26327 0.99546 0.00742 1.0000
Ar16 Ar 1 0.40339 0.33788 0.32592 1.0000
Ar17 Ar 1 0.00454 0.26782 0.00742 1.0000
Ar18 Ar 1 0.66212 0.06552 0.32592 1.0000
B1 B 1 0.32652 0.99683 0.17878 1.0000
B2 B 1 0.67348 0.00317 0.82122 1.0000
B3 B 1 0.00317 0.32968 0.17878 1.0000
B4 B 1 0.99683 0.67032 0.82122 1.0000
B5 B 1 0.67032 0.67348 0.17878 1.0000
B6 B 1 0.32968 0.32652 0.82122 1.0000
B7 B 1 0.99318 0.33017 0.51212 1.0000
B8 B 1 0.34015 0.33650 0.15455 1.0000
B9 B 1 0.66983 0.66302 0.51212 1.0000
B10 B 1 0.66350 0.00365 0.15455 1.0000
B11 B 1 0.33698 0.00682 0.51212 1.0000
B12 B 1 0.99635 0.65985 0.15455 1.0000
B13 B 1 0.65985 0.66350 0.84545 1.0000
B14 B 1 0.00682 0.66983 0.48788 1.0000
B15 B 1 0.33650 0.99635 0.84545 1.0000
B16 B 1 0.33017 0.33698 0.48788 1.0000
B17 B 1 0.00365 0.34015 0.84545 1.0000
B18 B 1 0.66302 0.99318 0.48788 1.0000
B19 B 1 0.41267 0.20898 0.30308 1.0000
B20 B 1 0.58733 0.79102 0.69692 1.0000
B21 B 1 0.79102 0.20368 0.30308 1.0000
B22 B 1 0.20898 0.79632 0.69692 1.0000
B23 B 1 0.79632 0.58733 0.30308 1.0000
B24 B 1 0.20368 0.41267 0.69692 1.0000
B25 B 1 0.07933 0.54232 0.63642 1.0000
B26 B 1 0.25400 0.12435 0.03025 1.0000
B27 B 1 0.45768 0.53702 0.63642 1.0000
B28 B 1 0.87565 0.12965 0.03025 1.0000
B29 B 1 0.46298 0.92067 0.63642 1.0000
B30 B 1 0.87035 0.74600 0.03025 1.0000
B31 B 1 0.74600 0.87565 0.96975 1.0000
B32 B 1 0.92067 0.45768 0.36358 1.0000
B33 B 1 0.12435 0.87035 0.96975 1.0000
B34 B 1 0.54232 0.46298 0.36358 1.0000
B35 B 1 0.12965 0.25400 0.96975 1.0000
B36 B 1 0.53702 0.07933 0.36358 1.0000
#End of data_11_VEJZEQ

data_12_AKUGES
_chemical_formula_structural	'Zn(bIm)2'
_chemical_formula_sum		'Ar1 B2'
_citation_special_details	'original source structure doi: 10.1360/03wb0079'
;
File: AKUGES.cif.
;
_cell_length_a			7.29451
_cell_length_b			7.29451
_cell_length_c			5.27878
_cell_angle_alpha		90.00000
_cell_angle_beta		90.00000
_cell_angle_gamma		120.00000
_cell_volume			243.25233
_cell_formula_units_Z		18
_symmetry_space_group_name_H-M	'P 1'
_symmetry_Int_Tables_number	1
loop_
_symmetry_equiv_pos_site_id
_symmetry_equiv_pos_as_xyz
1 x,y,z
loop_
_atom_site_label
_atom_site_type_symbol
_atom_site_symmetry_multiplicity
_atom_site_fract_x
_atom_site_fract_y
_atom_site_fract_z
_atom_site_occupancy
Ar1 Ar 1 0.27284 0.00000 0.00000 1.0000
Ar2 Ar 1 0.72716 0.00000 0.00000 1.0000
Ar3 Ar 1 0.00000 0.27284 0.00000 1.0000
Ar4 Ar 1 0.00000 0.72716 0.00000 1.0000
Ar5 Ar 1 0.72716 0.72716 0.00000 1.0000
Ar6 Ar 1 0.27284 0.27284 0.00000 1.0000
Ar7 Ar 1 0.93951 0.33333 0.33333 1.0000
Ar8 Ar 1 0.39383 0.33333 0.33333 1.0000
Ar9 Ar 1 0.66667 0.60617 0.33333 1.0000
Ar10 Ar 1 0.66667 0.06049 0.33333 1.0000
Ar11 Ar 1 0.39383 0.06049 0.33333 1.0000
Ar12 Ar 1 0.93951 0.60617 0.33333 1.0000
Ar13 Ar 1 0.60617 0.66667 0.66667 1.0000
Ar14 Ar 1 0.06049 0.66667 0.66667 1.0000
Ar15 Ar 1 0.33333 0.93951 0.66667 1.0000
Ar16 Ar 1 0.33333 0.39383 0.66667 1.0000
Ar17 Ar 1 0.06049 0.39383 0.66667 1.0000
Ar18 Ar 1 0.60617 0.93951 0.66667 1.0000
B1 B 1 0.25882 0.12941 0.03117 1.0000
B2 B 1 0.74118 0.87059 0.96883 1.0000
B3 B 1 0.87059 0.12941 0.03117 1.0000
B4 B 1 0.12941 0.87059 0.96883 1.0000
B5 B 1 0.87059 0.74118 0.03117 1.0000
B6 B 1 0.12941 0.25882 0.96883 1.0000
B7 B 1 0.92549 0.46274 0.36450 1.0000
B8 B 1 0.40785 0.20392 0.30216 1.0000
B9 B 1 0.53726 0.46274 0.36450 1.0000
B10 B 1 0.79608 0.20392 0.30216 1.0000
B11 B 1 0.53726 0.07451 0.36450 1.0000
B12 B 1 0.79608 0.59215 0.30216 1.0000
B13 B 1 0.59215 0.79608 0.69784 1.0000
B14 B 1 0.07451 0.53726 0.63550 1.0000
B15 B 1 0.20392 0.79608 0.69784 1.0000
B16 B 1 0.46274 0.53726 0.63550 1.0000
B17 B 1 0.20392 0.40785 0.69784 1.0000
B18 B 1 0.46274 0.92549 0.63550 1.0000
B19 B 1 0.34184 0.00851 0.83333 1.0000
B20 B 1 0.65816 0.99149 0.16667 1.0000
B21 B 1 0.99149 0.33333 0.83333 1.0000
B22 B 1 0.00851 0.66667 0.16667 1.0000
B23 B 1 0.66667 0.65816 0.83333 1.0000
B24 B 1 0.33333 0.34184 0.16667 1.0000
B25 B 1 0.00851 0.34184 0.16667 1.0000
B26 B 1 0.99149 0.65816 0.83333 1.0000
B27 B 1 0.33333 0.99149 0.16667 1.0000
B28 B 1 0.66667 0.00851 0.83333 1.0000
B29 B 1 0.65816 0.66667 0.16667 1.0000
B30 B 1 0.34184 0.33333 0.83333 1.0000
B31 B 1 0.32483 0.32483 0.50000 1.0000
B32 B 1 0.67517 1.00000 0.50000 1.0000
B33 B 1 0.00000 0.67518 0.50000 1.0000
B34 B 1 0.67517 0.67518 0.50000 1.0000
B35 B 1 0.00000 0.32483 0.50000 1.0000
B36 B 1 0.32482 1.00000 0.50000 1.0000
#End of data_12_AKUGES

data_13_BAYQAU01
_chemical_formula_structural	'Cd(Im)2'
_chemical_formula_sum		'Ar1 B2'
_citation_special_details	'original source structure doi: 10.1002/chem.200304957; 10.1002/ejic.200300560'
;
File: BAYQAU01.cif.
;
_cell_length_a			3.05352
_cell_length_b			3.30195
_cell_length_c			4.49587
_cell_angle_alpha		90.00000
_cell_angle_beta		90.00000
_cell_angle_gamma		90.00000
_cell_volume			45.32994
_cell_formula_units_Z		8
_symmetry_space_group_name_H-M	'P 1'
_symmetry_Int_Tables_number	1
loop_
_symmetry_equiv_pos_site_id
_symmetry_equiv_pos_as_xyz
1 x,y,z
loop_
_atom_site_label
_atom_site_type_symbol
_atom_site_symmetry_multiplicity
_atom_site_fract_x
_atom_site_fract_y
_atom_site_fract_z
_atom_site_occupancy
Ar1 Ar 1 0.19920 0.46814 0.61239 1.0000
Ar2 Ar 1 0.80080 0.53186 0.38761 1.0000
Ar3 Ar 1 0.80080 0.03186 0.11239 1.0000
Ar4 Ar 1 0.19920 0.96814 0.88761 1.0000
Ar5 Ar 1 0.69920 0.53186 0.88761 1.0000
Ar6 Ar 1 0.30080 0.46814 0.11239 1.0000
Ar7 Ar 1 0.30080 0.96814 0.38761 1.0000
Ar8 Ar 1 0.69920 0.03186 0.61239 1.0000
B1 B 1 0.20920 0.18575 0.53065 1.0000
B2 B 1 0.79080 0.81425 0.46935 1.0000
B3 B 1 0.79080 0.31425 0.03065 1.0000
B4 B 1 0.20920 0.68575 0.96935 1.0000
B5 B 1 0.70920 0.81425 0.96935 1.0000
B6 B 1 0.29080 0.18575 0.03065 1.0000
B7 B 1 0.29080 0.68575 0.46935 1.0000
B8 B 1 0.70920 0.31425 0.53065 1.0000
B9 B 1 0.42415 0.45910 0.77935 1.0000
B10 B 1 0.57585 0.54090 0.22065 1.0000
B11 B 1 0.57585 0.04090 0.27935 1.0000
B12 B 1 0.42415 0.95910 0.72065 1.0000
B13 B 1 0.92415 0.54090 0.72065 1.0000
B14 B 1 0.07585 0.45910 0.27935 1.0000
B15 B 1 0.07585 0.95910 0.22065 1.0000
B16 B 1 0.92415 0.04090 0.77935 1.0000
#End of data_13_BAYQAU01

data_14_GITVEL
_chemical_name_common		'ZIF70Â  '
_chemical_formula_structural	'Zn(Im)1.13(nIm)0.87'
_chemical_formula_sum		'Ar1 B2'
_citation_special_details	'original source structure doi: 10.1126/science.1152516'
;
File: GITVEL.cif.
;
_cell_length_a			8.84686
_cell_length_b			8.84686
_cell_length_c			5.90230
_cell_angle_alpha		90.00000
_cell_angle_beta		90.00000
_cell_angle_gamma		120.00000
_cell_volume			400.06475
_cell_formula_units_Z		24
_symmetry_space_group_name_H-M	'P 1'
_symmetry_Int_Tables_number	1
loop_
_symmetry_equiv_pos_site_id
_symmetry_equiv_pos_as_xyz
1 x,y,z
loop_
_atom_site_label
_atom_site_type_symbol
_atom_site_symmetry_multiplicity
_atom_site_fract_x
_atom_site_fract_y
_atom_site_fract_z
_atom_site_occupancy
Ar1 Ar 1 0.66721 0.11074 0.42033 1.0000
Ar2 Ar 1 0.33279 0.88926 0.57967 1.0000
Ar3 Ar 1 0.88926 0.55647 0.42033 1.0000
Ar4 Ar 1 0.11074 0.44353 0.57967 1.0000
Ar5 Ar 1 0.44353 0.33279 0.42033 1.0000
Ar6 Ar 1 0.55647 0.66721 0.57967 1.0000
Ar7 Ar 1 0.33279 0.88926 0.92033 1.0000
Ar8 Ar 1 0.66721 0.11074 0.07967 1.0000
Ar9 Ar 1 0.11074 0.44353 0.92033 1.0000
Ar10 Ar 1 0.88926 0.55647 0.07967 1.0000
Ar11 Ar 1 0.55647 0.66721 0.92033 1.0000
Ar12 Ar 1 0.44353 0.33279 0.07967 1.0000
Ar13 Ar 1 0.11074 0.66721 0.57967 1.0000
Ar14 Ar 1 0.88926 0.33279 0.42033 1.0000
Ar15 Ar 1 0.55647 0.88926 0.57967 1.0000
Ar16 Ar 1 0.44353 0.11074 0.42033 1.0000
Ar17 Ar 1 0.33279 0.44353 0.57967 1.0000
Ar18 Ar 1 0.66721 0.55647 0.42033 1.0000
Ar19 Ar 1 0.88926 0.33279 0.07967 1.0000
Ar20 Ar 1 0.11074 0.66721 0.92033 1.0000
Ar21 Ar 1 0.44353 0.11074 0.07967 1.0000
Ar22 Ar 1 0.55647 0.88926 0.92033 1.0000
Ar23 Ar 1 0.66721 0.55647 0.07967 1.0000
Ar24 Ar 1 0.33279 0.44353 0.92033 1.0000
B1 B 1 0.66870 0.09100 0.25000 1.0000
B2 B 1 0.33130 0.90900 0.75000 1.0000
B3 B 1 0.90900 0.57770 0.25000 1.0000
B4 B 1 0.09100 0.42230 0.75000 1.0000
B5 B 1 0.42230 0.33130 0.25000 1.0000
B6 B 1 0.57770 0.66870 0.75000 1.0000
B7 B 1 0.09100 0.66870 0.75000 1.0000
B8 B 1 0.90900 0.33130 0.25000 1.0000
B9 B 1 0.57770 0.90900 0.75000 1.0000
B10 B 1 0.42230 0.09100 0.25000 1.0000
B11 B 1 0.33130 0.42230 0.75000 1.0000
B12 B 1 0.66870 0.57770 0.25000 1.0000
B13 B 1 0.77903 0.22097 0.45440 1.0000
B14 B 1 0.22097 0.77903 0.54560 1.0000
B15 B 1 0.77903 0.55806 0.45440 1.0000
B16 B 1 0.22097 0.44194 0.54560 1.0000
B17 B 1 0.44194 0.22097 0.45440 1.0000
B18 B 1 0.55806 0.77903 0.54560 1.0000
B19 B 1 0.22097 0.77903 0.95440 1.0000
B20 B 1 0.77903 0.22097 0.04560 1.0000
B21 B 1 0.22097 0.44194 0.95440 1.0000
B22 B 1 0.77903 0.55806 0.04560 1.0000
B23 B 1 0.55806 0.77903 0.95440 1.0000
B24 B 1 0.44194 0.22097 0.04560 1.0000
B25 B 1 0.55882 0.11764 0.45370 1.0000
B26 B 1 0.44118 0.88236 0.54630 1.0000
B27 B 1 0.88236 0.44118 0.45370 1.0000
B28 B 1 0.11764 0.55882 0.54630 1.0000
B29 B 1 0.55882 0.44118 0.45370 1.0000
B30 B 1 0.44118 0.55882 0.54630 1.0000
B31 B 1 0.44118 0.88236 0.95370 1.0000
B32 B 1 0.55882 0.11764 0.04630 1.0000
B33 B 1 0.11764 0.55882 0.95370 1.0000
B34 B 1 0.88236 0.44118 0.04630 1.0000
B35 B 1 0.44118 0.55882 0.95370 1.0000
B36 B 1 0.55882 0.44118 0.04630 1.0000
B37 B 1 0.63930 0.00000 0.50000 1.0000
B38 B 1 0.36070 0.00000 0.50000 1.0000
B39 B 1 1.00000 0.63930 0.50000 1.0000
B40 B 1 0.00000 0.36070 0.50000 1.0000
B41 B 1 0.36070 0.36070 0.50000 1.0000
B42 B 1 0.63930 0.63930 0.50000 1.0000
B43 B 1 0.36070 0.00000 0.00000 1.0000
B44 B 1 0.63930 0.00000 0.00000 1.0000
B45 B 1 0.00000 0.36070 0.00000 1.0000
B46 B 1 1.00000 0.63930 0.00000 1.0000
B47 B 1 0.63930 0.63930 0.00000 1.0000
B48 B 1 0.36070 0.36070 0.00000 1.0000
#End of data_14_GITVEL

data_15_GITWAI
_chemical_name_common		'ZIF75Â  '
_chemical_formula_structural	'Co(mbIm)(nIm)'
_chemical_formula_sum		'Ar1 B2'
_citation_special_details	'original source structure doi: 10.1126/science.1152516'
;
File: GITWAI.cif.
;
_cell_length_a			5.45525
_cell_length_b			5.45525
_cell_length_c			7.06216
_cell_angle_alpha		90.00000
_cell_angle_beta		90.00000
_cell_angle_gamma		90.00000
_cell_volume			210.16819
_cell_formula_units_Z		16
_symmetry_space_group_name_H-M	'P 1'
_symmetry_Int_Tables_number	1
loop_
_symmetry_equiv_pos_site_id
_symmetry_equiv_pos_as_xyz
1 x,y,z
loop_
_atom_site_label
_atom_site_type_symbol
_atom_site_symmetry_multiplicity
_atom_site_fract_x
_atom_site_fract_y
_atom_site_fract_z
_atom_site_occupancy
Ar1 Ar 1 0.69842 0.58907 0.10763 1.0000
Ar2 Ar 1 0.30158 0.41093 0.89237 1.0000
Ar3 Ar 1 0.80158 0.41093 0.60763 1.0000
Ar4 Ar 1 0.19842 0.58907 0.39237 1.0000
Ar5 Ar 1 0.16093 0.94842 0.35763 1.0000
Ar6 Ar 1 0.83907 0.05158 0.64237 1.0000
Ar7 Ar 1 0.33907 0.05158 0.85763 1.0000
Ar8 Ar 1 0.66093 0.94842 0.14237 1.0000
Ar9 Ar 1 0.19842 0.08907 0.60763 1.0000
Ar10 Ar 1 0.80158 0.91093 0.39237 1.0000
Ar11 Ar 1 0.30158 0.91093 0.10763 1.0000
Ar12 Ar 1 0.69842 0.08907 0.89237 1.0000
Ar13 Ar 1 0.66093 0.44842 0.85763 1.0000
Ar14 Ar 1 0.33907 0.55158 0.14237 1.0000
Ar15 Ar 1 0.83907 0.55158 0.35763 1.0000
Ar16 Ar 1 0.16093 0.44842 0.64237 1.0000
B1 B 1 0.71680 0.77355 0.11515 1.0000
B2 B 1 0.28320 0.22645 0.88485 1.0000
B3 B 1 0.78320 0.22645 0.61515 1.0000
B4 B 1 0.21680 0.77355 0.38485 1.0000
B5 B 1 0.97645 0.96680 0.36515 1.0000
B6 B 1 0.02355 0.03320 0.63485 1.0000
B7 B 1 0.52355 0.03320 0.86515 1.0000
B8 B 1 0.47645 0.96680 0.13485 1.0000
B9 B 1 0.21680 0.27355 0.61515 1.0000
B10 B 1 0.78320 0.72645 0.38485 1.0000
B11 B 1 0.28320 0.72645 0.11515 1.0000
B12 B 1 0.71680 0.27355 0.88485 1.0000
B13 B 1 0.47645 0.46680 0.86515 1.0000
B14 B 1 0.52355 0.53320 0.13485 1.0000
B15 B 1 0.02355 0.53320 0.36515 1.0000
B16 B 1 0.97645 0.46680 0.63485 1.0000
B17 B 1 0.72235 0.53335 0.97380 1.0000
B18 B 1 0.27765 0.46665 0.02620 1.0000
B19 B 1 0.77765 0.46665 0.47380 1.0000
B20 B 1 0.22235 0.53335 0.52620 1.0000
B21 B 1 0.21665 0.97235 0.22380 1.0000
B22 B 1 0.78335 0.02765 0.77620 1.0000
B23 B 1 0.28335 0.02765 0.72380 1.0000
B24 B 1 0.71665 0.97235 0.27620 1.0000
B25 B 1 0.22235 0.03335 0.47380 1.0000
B26 B 1 0.77765 0.96665 0.52620 1.0000
B27 B 1 0.27765 0.96665 0.97380 1.0000
B28 B 1 0.72235 0.03335 0.02620 1.0000
B29 B 1 0.71665 0.47235 0.72380 1.0000
B30 B 1 0.28335 0.52765 0.27620 1.0000
B31 B 1 0.78335 0.52765 0.22380 1.0000
B32 B 1 0.21665 0.47235 0.77620 1.0000
#End of data_15_GITWAI

data_16_EQOCES01
_chemical_formula_structural	'Co(Im)2'
_chemical_formula_sum		'Ar1 B2'
_citation_special_details	'original source structure doi: 10.1021/ic049713z'
;
File: EQOCES01.cif.
;
_cell_length_a			5.25776
_cell_length_b			5.24265
_cell_length_c			6.08202
_cell_angle_alpha		90.00000
_cell_angle_beta		90.00000
_cell_angle_gamma		90.00000
_cell_volume			167.64813
_cell_formula_units_Z		16
_symmetry_space_group_name_H-M	'P 1'
_symmetry_Int_Tables_number	1
loop_
_symmetry_equiv_pos_site_id
_symmetry_equiv_pos_as_xyz
1 x,y,z
loop_
_atom_site_label
_atom_site_type_symbol
_atom_site_symmetry_multiplicity
_atom_site_fract_x
_atom_site_fract_y
_atom_site_fract_z
_atom_site_occupancy
Ar1 Ar 1 0.31203 0.13639 0.60097 1.0000
Ar2 Ar 1 0.68797 0.86361 0.39903 1.0000
Ar3 Ar 1 0.18797 0.86361 0.10097 1.0000
Ar4 Ar 1 0.81203 0.13639 0.89903 1.0000
Ar5 Ar 1 0.68797 0.63639 0.89903 1.0000
Ar6 Ar 1 0.31203 0.36361 0.10097 1.0000
Ar7 Ar 1 0.81203 0.36361 0.39903 1.0000
Ar8 Ar 1 0.18797 0.63639 0.60097 1.0000
Ar9 Ar 1 0.00494 0.32136 0.67494 1.0000
Ar10 Ar 1 0.99506 0.67864 0.32506 1.0000
Ar11 Ar 1 0.49506 0.67864 0.17494 1.0000
Ar12 Ar 1 0.50494 0.32136 0.82506 1.0000
Ar13 Ar 1 0.99506 0.82136 0.82506 1.0000
Ar14 Ar 1 0.00494 0.17864 0.17494 1.0000
Ar15 Ar 1 0.50494 0.17864 0.32506 1.0000
Ar16 Ar 1 0.49506 0.82136 0.67494 1.0000
B1 B 1 0.13161 0.19085 0.62609 1.0000
B2 B 1 0.86839 0.80915 0.37391 1.0000
B3 B 1 0.36839 0.80915 0.12609 1.0000
B4 B 1 0.63161 0.19085 0.87391 1.0000
B5 B 1 0.86839 0.69085 0.87391 1.0000
B6 B 1 0.13161 0.30915 0.12609 1.0000
B7 B 1 0.63161 0.30915 0.37391 1.0000
B8 B 1 0.36839 0.69085 0.62609 1.0000
B9 B 1 0.37874 0.14205 0.44611 1.0000
B10 B 1 0.62126 0.85795 0.55389 1.0000
B11 B 1 0.12126 0.85795 0.94611 1.0000
B12 B 1 0.87874 0.14205 0.05389 1.0000
B13 B 1 0.62126 0.64205 0.05389 1.0000
B14 B 1 0.37874 0.35795 0.94611 1.0000
B15 B 1 0.87874 0.35795 0.55389 1.0000
B16 B 1 0.12126 0.64205 0.44611 1.0000
B17 B 1 0.37975 0.97421 0.66765 1.0000
B18 B 1 0.62025 0.02579 0.33235 1.0000
B19 B 1 0.12025 0.02579 0.16765 1.0000
B20 B 1 0.87975 0.97421 0.83235 1.0000
B21 B 1 0.62025 0.47421 0.83235 1.0000
B22 B 1 0.37975 0.52579 0.16765 1.0000
B23 B 1 0.87975 0.52579 0.33235 1.0000
B24 B 1 0.12025 0.47421 0.66765 1.0000
B25 B 1 0.91205 0.26345 0.81033 1.0000
B26 B 1 0.08795 0.73655 0.18967 1.0000
B27 B 1 0.58795 0.73655 0.31033 1.0000
B28 B 1 0.41205 0.26345 0.68967 1.0000
B29 B 1 0.08795 0.76345 0.68967 1.0000
B30 B 1 0.91205 0.23655 0.31033 1.0000
B31 B 1 0.41205 0.23655 0.18967 1.0000
B32 B 1 0.58795 0.76345 0.81033 1.0000
#End of data_16_EQOCES01

data_17_GITTIN
_chemical_name_common		'ZIF65 '
_chemical_formula_structural	'Co(nIm)2'
_chemical_formula_sum		'Ar1 B2'
_citation_special_details	'original source structure doi: 10.1126/science.1152516'
;
File: GITTIN.cif.
;
_cell_length_a			5.55864
_cell_length_b			5.55864
_cell_length_c			5.55864
_cell_angle_alpha		90.00000
_cell_angle_beta		90.00000
_cell_angle_gamma		90.00000
_cell_volume			171.75364
_cell_formula_units_Z		12
_symmetry_space_group_name_H-M	'P 1'
_symmetry_Int_Tables_number	1
loop_
_symmetry_equiv_pos_site_id
_symmetry_equiv_pos_as_xyz
1 x,y,z
loop_
_atom_site_label
_atom_site_type_symbol
_atom_site_symmetry_multiplicity
_atom_site_fract_x
_atom_site_fract_y
_atom_site_fract_z
_atom_site_occupancy
Ar1 Ar 1 0.00000 0.50000 0.25000 1.0000
Ar2 Ar 1 0.00000 0.50000 0.75000 1.0000
Ar3 Ar 1 0.25000 0.00000 0.50000 1.0000
Ar4 Ar 1 0.75000 0.00000 0.50000 1.0000
Ar5 Ar 1 0.50000 0.25000 0.00000 1.0000
Ar6 Ar 1 0.50000 0.75000 0.00000 1.0000
Ar7 Ar 1 0.50000 0.00000 0.25000 1.0000
Ar8 Ar 1 0.50000 0.00000 0.75000 1.0000
Ar9 Ar 1 0.00000 0.25000 0.50000 1.0000
Ar10 Ar 1 0.00000 0.75000 0.50000 1.0000
Ar11 Ar 1 0.25000 0.50000 0.00000 1.0000
Ar12 Ar 1 0.75000 0.50000 0.00000 1.0000
B1 B 1 0.86495 0.46980 0.13505 1.0000
B2 B 1 0.13505 0.53020 0.13505 1.0000
B3 B 1 0.13505 0.46980 0.86495 1.0000
B4 B 1 0.86495 0.53020 0.86495 1.0000
B5 B 1 0.13505 0.86495 0.46980 1.0000
B6 B 1 0.13505 0.13505 0.53020 1.0000
B7 B 1 0.86495 0.13505 0.46980 1.0000
B8 B 1 0.86495 0.86495 0.53020 1.0000
B9 B 1 0.46980 0.13505 0.86495 1.0000
B10 B 1 0.53020 0.13505 0.13505 1.0000
B11 B 1 0.46980 0.86495 0.13505 1.0000
B12 B 1 0.53020 0.86495 0.86495 1.0000
B13 B 1 0.36495 0.96980 0.63505 1.0000
B14 B 1 0.63505 0.03020 0.63505 1.0000
B15 B 1 0.63505 0.96980 0.36495 1.0000
B16 B 1 0.36495 0.03020 0.36495 1.0000
B17 B 1 0.63505 0.36495 0.96980 1.0000
B18 B 1 0.63505 0.63505 0.03020 1.0000
B19 B 1 0.36495 0.63505 0.96980 1.0000
B20 B 1 0.36495 0.36495 0.03020 1.0000
B21 B 1 0.96980 0.63505 0.36495 1.0000
B22 B 1 0.03020 0.63505 0.63505 1.0000
B23 B 1 0.96980 0.36495 0.63505 1.0000
B24 B 1 0.03020 0.36495 0.36495 1.0000
#End of data_17_GITTIN

data_18_GITSUY
_chemical_name_common		'ZIF60 '
_chemical_formula_structural	'Zn2(Im)3(mIm)'
_chemical_formula_sum		'Ar1 B2'
_citation_special_details	'original source structure doi: 10.1126/science.1152516'
;
File: GITSUY.cif.
;
_cell_length_a			8.90817
_cell_length_b			8.90817
_cell_length_c			6.28609
_cell_angle_alpha		90.00000
_cell_angle_beta		90.00000
_cell_angle_gamma		90.00000
_cell_volume			498.83583
_cell_formula_units_Z		32
_symmetry_space_group_name_H-M	'P 1'
_symmetry_Int_Tables_number	1
loop_
_symmetry_equiv_pos_site_id
_symmetry_equiv_pos_as_xyz
1 x,y,z
loop_
_atom_site_label
_atom_site_type_symbol
_atom_site_symmetry_multiplicity
_atom_site_fract_x
_atom_site_fract_y
_atom_site_fract_z
_atom_site_occupancy
Ar1 Ar 1 0.26649 0.11025 0.15652 1.0000
Ar2 Ar 1 0.73351 0.88975 0.84348 1.0000
Ar3 Ar 1 0.73351 0.88975 0.15652 1.0000
Ar4 Ar 1 0.26649 0.11025 0.84348 1.0000
Ar5 Ar 1 0.88975 0.26649 0.15652 1.0000
Ar6 Ar 1 0.11025 0.73351 0.84348 1.0000
Ar7 Ar 1 0.11025 0.73351 0.15652 1.0000
Ar8 Ar 1 0.88975 0.26649 0.84348 1.0000
Ar9 Ar 1 0.73351 0.11025 0.84348 1.0000
Ar10 Ar 1 0.26649 0.88975 0.15652 1.0000
Ar11 Ar 1 0.26649 0.88975 0.84348 1.0000
Ar12 Ar 1 0.73351 0.11025 0.15652 1.0000
Ar13 Ar 1 0.11025 0.26649 0.84348 1.0000
Ar14 Ar 1 0.88975 0.73351 0.15652 1.0000
Ar15 Ar 1 0.88975 0.73351 0.84348 1.0000
Ar16 Ar 1 0.11025 0.26649 0.15652 1.0000
Ar17 Ar 1 0.76649 0.61025 0.65652 1.0000
Ar18 Ar 1 0.23351 0.38975 0.34348 1.0000
Ar19 Ar 1 0.23351 0.38975 0.65652 1.0000
Ar20 Ar 1 0.76649 0.61025 0.34348 1.0000
Ar21 Ar 1 0.38975 0.76649 0.65652 1.0000
Ar22 Ar 1 0.61025 0.23351 0.34348 1.0000
Ar23 Ar 1 0.61025 0.23351 0.65652 1.0000
Ar24 Ar 1 0.38975 0.76649 0.34348 1.0000
Ar25 Ar 1 0.23351 0.61025 0.34348 1.0000
Ar26 Ar 1 0.76649 0.38975 0.65652 1.0000
Ar27 Ar 1 0.76649 0.38975 0.34348 1.0000
Ar28 Ar 1 0.23351 0.61025 0.65652 1.0000
Ar29 Ar 1 0.61025 0.76649 0.34348 1.0000
Ar30 Ar 1 0.38975 0.23351 0.65652 1.0000
Ar31 Ar 1 0.38975 0.23351 0.34348 1.0000
Ar32 Ar 1 0.61025 0.76649 0.65652 1.0000
B1 B 1 0.34620 0.15380 0.25000 1.0000
B2 B 1 0.65380 0.84620 0.75000 1.0000
B3 B 1 0.65380 0.84620 0.25000 1.0000
B4 B 1 0.34620 0.15380 0.75000 1.0000
B5 B 1 0.84620 0.34620 0.25000 1.0000
B6 B 1 0.15380 0.65380 0.75000 1.0000
B7 B 1 0.15380 0.65380 0.25000 1.0000
B8 B 1 0.84620 0.34620 0.75000 1.0000
B9 B 1 0.65380 0.15380 0.75000 1.0000
B10 B 1 0.34620 0.84620 0.25000 1.0000
B11 B 1 0.34620 0.84620 0.75000 1.0000
B12 B 1 0.65380 0.15380 0.25000 1.0000
B13 B 1 0.15380 0.34620 0.75000 1.0000
B14 B 1 0.84620 0.65380 0.25000 1.0000
B15 B 1 0.84620 0.65380 0.75000 1.0000
B16 B 1 0.15380 0.34620 0.25000 1.0000
B17 B 1 0.24833 1.00000 0.17350 1.0000
B18 B 1 0.75167 1.00000 0.82650 1.0000
B19 B 1 0.75167 1.00000 0.17350 1.0000
B20 B 1 0.24833 1.00000 0.82650 1.0000
B21 B 1 1.00000 0.24833 0.17350 1.0000
B22 B 1 1.00000 0.75167 0.82650 1.0000
B23 B 1 1.00000 0.75167 0.17350 1.0000
B24 B 1 1.00000 0.24833 0.82650 1.0000
B25 B 1 0.74833 0.50000 0.67350 1.0000
B26 B 1 0.25167 0.50000 0.32650 1.0000
B27 B 1 0.25167 0.50000 0.67350 1.0000
B28 B 1 0.74833 0.50000 0.32650 1.0000
B29 B 1 0.50000 0.74833 0.67350 1.0000
B30 B 1 0.50000 0.25167 0.32650 1.0000
B31 B 1 0.50000 0.25167 0.67350 1.0000
B32 B 1 0.50000 0.74833 0.32650 1.0000
B33 B 1 0.18160 0.18160 0.18500 1.0000
B34 B 1 0.81840 0.81840 0.81500 1.0000
B35 B 1 0.81840 0.81840 0.18500 1.0000
B36 B 1 0.18160 0.18160 0.81500 1.0000
B37 B 1 0.81840 0.18160 0.18500 1.0000
B38 B 1 0.18160 0.81840 0.81500 1.0000
B39 B 1 0.18160 0.81840 0.18500 1.0000
B40 B 1 0.81840 0.18160 0.81500 1.0000
B41 B 1 0.68160 0.68160 0.68500 1.0000
B42 B 1 0.31840 0.31840 0.31500 1.0000
B43 B 1 0.31840 0.31840 0.68500 1.0000
B44 B 1 0.68160 0.68160 0.31500 1.0000
B45 B 1 0.31840 0.68160 0.68500 1.0000
B46 B 1 0.68160 0.31840 0.31500 1.0000
B47 B 1 0.68160 0.31840 0.68500 1.0000
B48 B 1 0.31840 0.68160 0.31500 1.0000
B49 B 1 0.28516 0.12090 1.00000 1.0000
B50 B 1 0.71484 0.87910 1.00000 1.0000
B51 B 1 0.87910 0.28516 1.00000 1.0000
B52 B 1 0.12090 0.71484 1.00000 1.0000
B53 B 1 0.71484 0.12090 1.00000 1.0000
B54 B 1 0.28516 0.87910 1.00000 1.0000
B55 B 1 0.12090 0.28516 1.00000 1.0000
B56 B 1 0.87910 0.71484 1.00000 1.0000
B57 B 1 0.78516 0.62090 0.50000 1.0000
B58 B 1 0.21484 0.37910 0.50000 1.0000
B59 B 1 0.37910 0.78516 0.50000 1.0000
B60 B 1 0.62090 0.21484 0.50000 1.0000
B61 B 1 0.21484 0.62090 0.50000 1.0000
B62 B 1 0.78516 0.37910 0.50000 1.0000
B63 B 1 0.62090 0.78516 0.50000 1.0000
B64 B 1 0.37910 0.21484 0.50000 1.0000
#End of data_18_GITSUY

data_19_BAYQAU
_chemical_formula_structural	'Cd(Im)2'
_chemical_formula_sum		'Ar1 B2'
_citation_special_details	'original source structure doi: 10.1039/b302840b'
;
File: BAYQAU.cif.
;
_cell_length_a			4.52207
_cell_length_b			3.32502
_cell_length_c			3.07248
_cell_angle_alpha		90.00000
_cell_angle_beta		90.00000
_cell_angle_gamma		90.00000
_cell_volume			46.19765
_cell_formula_units_Z		8
_symmetry_space_group_name_H-M	'P 1'
_symmetry_Int_Tables_number	1
loop_
_symmetry_equiv_pos_site_id
_symmetry_equiv_pos_as_xyz
1 x,y,z
loop_
_atom_site_label
_atom_site_type_symbol
_atom_site_symmetry_multiplicity
_atom_site_fract_x
_atom_site_fract_y
_atom_site_fract_z
_atom_site_occupancy
Ar1 Ar 1 0.38786 0.03210 0.30158 1.0000
Ar2 Ar 1 0.61214 0.96790 0.69842 1.0000
Ar3 Ar 1 0.11214 0.96790 0.80158 1.0000
Ar4 Ar 1 0.88786 0.03210 0.19842 1.0000
Ar5 Ar 1 0.61214 0.53210 0.19842 1.0000
Ar6 Ar 1 0.38786 0.46790 0.80158 1.0000
Ar7 Ar 1 0.88786 0.46790 0.69842 1.0000
Ar8 Ar 1 0.11214 0.53210 0.30158 1.0000
B1 B 1 0.47109 0.31334 0.28654 1.0000
B2 B 1 0.52891 0.68667 0.71346 1.0000
B3 B 1 0.02891 0.68667 0.78654 1.0000
B4 B 1 0.97109 0.31334 0.21346 1.0000
B5 B 1 0.52891 0.81333 0.21346 1.0000
B6 B 1 0.47109 0.18666 0.78654 1.0000
B7 B 1 0.97109 0.18666 0.71346 1.0000
B8 B 1 0.02891 0.81333 0.28654 1.0000
B9 B 1 0.21916 0.45768 0.57478 1.0000
B10 B 1 0.78084 0.54232 0.42522 1.0000
B11 B 1 0.28084 0.54232 0.07478 1.0000
B12 B 1 0.71916 0.45768 0.92522 1.0000
B13 B 1 0.78084 0.95769 0.92522 1.0000
B14 B 1 0.21916 0.04232 0.07478 1.0000
B15 B 1 0.71916 0.04232 0.42522 1.0000
B16 B 1 0.28084 0.95769 0.57478 1.0000
#End of data_19_BAYQAU

data_20_HIFVOI
_chemical_formula_structural	'Zn(Im)2'
_chemical_formula_sum		'Ar1 B2'
_citation_special_details	'original source structure doi: 10.1002/chem.200700181'
;
File: HIFVOI.cif.
;
_cell_length_a			6.27399
_cell_length_b			6.27399
_cell_length_c			5.61116
_cell_angle_alpha		90.00000
_cell_angle_beta		90.00000
_cell_angle_gamma		90.00000
_cell_volume			220.87196
_cell_formula_units_Z		16
_symmetry_space_group_name_H-M	'P 1'
_symmetry_Int_Tables_number	1
loop_
_symmetry_equiv_pos_site_id
_symmetry_equiv_pos_as_xyz
1 x,y,z
loop_
_atom_site_label
_atom_site_type_symbol
_atom_site_symmetry_multiplicity
_atom_site_fract_x
_atom_site_fract_y
_atom_site_fract_z
_atom_site_occupancy
Ar1 Ar 1 0.11388 0.66509 0.17642 1.0000
Ar2 Ar 1 0.88612 0.33491 0.82358 1.0000
Ar3 Ar 1 0.88612 0.33491 0.17642 1.0000
Ar4 Ar 1 0.11388 0.66509 0.82358 1.0000
Ar5 Ar 1 0.83491 0.61388 0.67642 1.0000
Ar6 Ar 1 0.16509 0.38612 0.32358 1.0000
Ar7 Ar 1 0.16509 0.38612 0.67642 1.0000
Ar8 Ar 1 0.83491 0.61388 0.32358 1.0000
Ar9 Ar 1 0.38612 0.16509 0.32358 1.0000
Ar10 Ar 1 0.61388 0.83491 0.67642 1.0000
Ar11 Ar 1 0.61388 0.83491 0.32358 1.0000
Ar12 Ar 1 0.38612 0.16509 0.67642 1.0000
Ar13 Ar 1 0.66509 0.11388 0.82358 1.0000
Ar14 Ar 1 0.33491 0.88612 0.17642 1.0000
Ar15 Ar 1 0.33491 0.88612 0.82358 1.0000
Ar16 Ar 1 0.66509 0.11388 0.17642 1.0000
B1 B 1 0.13420 0.64130 0.00000 1.0000
B2 B 1 0.86580 0.35870 0.00000 1.0000
B3 B 1 0.85870 0.63420 0.50000 1.0000
B4 B 1 0.14130 0.36580 0.50000 1.0000
B5 B 1 0.36580 0.14130 0.50000 1.0000
B6 B 1 0.63420 0.85870 0.50000 1.0000
B7 B 1 0.64130 0.13420 0.00000 1.0000
B8 B 1 0.35870 0.86580 0.00000 1.0000
B9 B 1 0.20475 0.79525 0.20130 1.0000
B10 B 1 0.79525 0.20475 0.79870 1.0000
B11 B 1 0.79525 0.20475 0.20130 1.0000
B12 B 1 0.20475 0.79525 0.79870 1.0000
B13 B 1 0.70475 0.70475 0.70130 1.0000
B14 B 1 0.29525 0.29525 0.29870 1.0000
B15 B 1 0.29525 0.29525 0.70130 1.0000
B16 B 1 0.70475 0.70475 0.29870 1.0000
B17 B 1 0.96110 0.66450 0.22720 1.0000
B18 B 1 0.03890 0.33550 0.77280 1.0000
B19 B 1 0.03890 0.33550 0.22720 1.0000
B20 B 1 0.96110 0.66450 0.77280 1.0000
B21 B 1 0.83550 0.46110 0.72720 1.0000
B22 B 1 0.16450 0.53890 0.27280 1.0000
B23 B 1 0.16450 0.53890 0.72720 1.0000
B24 B 1 0.83550 0.46110 0.27280 1.0000
B25 B 1 0.53890 0.16450 0.27280 1.0000
B26 B 1 0.46110 0.83550 0.72720 1.0000
B27 B 1 0.46110 0.83550 0.27280 1.0000
B28 B 1 0.53890 0.16450 0.72720 1.0000
B29 B 1 0.66450 0.96110 0.77280 1.0000
B30 B 1 0.33550 0.03890 0.22720 1.0000
B31 B 1 0.33550 0.03890 0.77280 1.0000
B32 B 1 0.66450 0.96110 0.22720 1.0000
#End of data_20_HIFVOI

data_21_HICGEG
_chemical_formula_structural	'Zn(Im)2'
_chemical_formula_sum		'Ar1 B2'
_citation_special_details	'original source structure doi: 10.1002/chem.200700181'
;
File: HICGEG.cif.
;
_cell_length_a			12.25229
_cell_length_b			6.32239
_cell_length_c			8.40496
_cell_angle_alpha		90.00000
_cell_angle_beta		132.41000
_cell_angle_gamma		90.00000
_cell_volume			480.71672
_cell_formula_units_Z		40
_symmetry_space_group_name_H-M	'P 1'
_symmetry_Int_Tables_number	1
loop_
_symmetry_equiv_pos_site_id
_symmetry_equiv_pos_as_xyz
1 x,y,z
loop_
_atom_site_label
_atom_site_type_symbol
_atom_site_symmetry_multiplicity
_atom_site_fract_x
_atom_site_fract_y
_atom_site_fract_z
_atom_site_occupancy
Ar1 Ar 1 0.34152 0.74702 0.45232 1.0000
Ar2 Ar 1 0.65848 0.25298 0.54768 1.0000
Ar3 Ar 1 0.65848 0.74702 0.04768 1.0000
Ar4 Ar 1 0.34152 0.25298 0.95232 1.0000
Ar5 Ar 1 0.84152 0.24702 0.45232 1.0000
Ar6 Ar 1 0.15848 0.75298 0.54768 1.0000
Ar7 Ar 1 0.15848 0.24702 0.04768 1.0000
Ar8 Ar 1 0.84152 0.75298 0.95232 1.0000
Ar9 Ar 1 0.34697 0.43461 0.45702 1.0000
Ar10 Ar 1 0.65303 0.56539 0.54298 1.0000
Ar11 Ar 1 0.65303 0.43461 0.04298 1.0000
Ar12 Ar 1 0.34697 0.56539 0.95702 1.0000
Ar13 Ar 1 0.84697 0.93461 0.45702 1.0000
Ar14 Ar 1 0.15303 0.06539 0.54298 1.0000
Ar15 Ar 1 0.15303 0.93461 0.04298 1.0000
Ar16 Ar 1 0.84697 0.06539 0.95702 1.0000
Ar17 Ar 1 0.50000 0.32190 0.75000 1.0000
Ar18 Ar 1 0.50000 0.67810 0.25000 1.0000
Ar19 Ar 1 1.00000 0.82190 0.75000 1.0000
Ar20 Ar 1 1.00000 0.17810 0.25000 1.0000
Ar21 Ar 1 0.17584 0.24863 0.29848 1.0000
Ar22 Ar 1 0.82416 0.75137 0.70152 1.0000
Ar23 Ar 1 0.82416 0.24863 0.20152 1.0000
Ar24 Ar 1 0.17584 0.75137 0.79848 1.0000
Ar25 Ar 1 0.67584 0.74863 0.29848 1.0000
Ar26 Ar 1 0.32416 0.25137 0.70152 1.0000
Ar27 Ar 1 0.32416 0.74863 0.20152 1.0000
Ar28 Ar 1 0.67584 0.25137 0.79848 1.0000
Ar29 Ar 1 0.17144 0.93693 0.29495 1.0000
Ar30 Ar 1 0.82856 0.06307 0.70505 1.0000
Ar31 Ar 1 0.82856 0.93693 0.20505 1.0000
Ar32 Ar 1 0.17144 0.06307 0.79495 1.0000
Ar33 Ar 1 0.67144 0.43693 0.29495 1.0000
Ar34 Ar 1 0.32856 0.56307 0.70505 1.0000
Ar35 Ar 1 0.32856 0.43693 0.20505 1.0000
Ar36 Ar 1 0.67144 0.56307 0.79495 1.0000
Ar37 Ar 1 1.00000 0.83507 0.25000 1.0000
Ar38 Ar 1 1.00000 0.16493 0.75000 1.0000
Ar39 Ar 1 0.50000 0.33507 0.25000 1.0000
Ar40 Ar 1 0.50000 0.66493 0.75000 1.0000
B1 B 1 0.32395 0.59035 0.44260 1.0000
B2 B 1 0.67605 0.40965 0.55740 1.0000
B3 B 1 0.67605 0.59035 0.05740 1.0000
B4 B 1 0.32395 0.40965 0.94260 1.0000
B5 B 1 0.82395 0.09035 0.44260 1.0000
B6 B 1 0.17605 0.90965 0.55740 1.0000
B7 B 1 0.17605 0.09035 0.05740 1.0000
B8 B 1 0.82395 0.90965 0.94260 1.0000
B9 B 1 0.43957 0.39950 0.60905 1.0000
B10 B 1 0.56043 0.60050 0.39095 1.0000
B11 B 1 0.56043 0.39950 0.89095 1.0000
B12 B 1 0.43957 0.60050 0.10905 1.0000
B13 B 1 0.93957 0.89950 0.60905 1.0000
B14 B 1 0.06043 0.10050 0.39095 1.0000
B15 B 1 0.06043 0.89950 0.89095 1.0000
B16 B 1 0.93957 0.10050 0.10905 1.0000
B17 B 1 0.26250 0.34160 0.40745 1.0000
B18 B 1 0.73750 0.65840 0.59255 1.0000
B19 B 1 0.73750 0.34160 0.09255 1.0000
B20 B 1 0.26250 0.65840 0.90745 1.0000
B21 B 1 0.76250 0.84160 0.40745 1.0000
B22 B 1 0.23750 0.15840 0.59255 1.0000
B23 B 1 0.23750 0.84160 0.09255 1.0000
B24 B 1 0.76250 0.15840 0.90745 1.0000
B25 B 1 0.19550 0.09220 0.32360 1.0000
B26 B 1 0.80450 0.90780 0.67640 1.0000
B27 B 1 0.80450 0.09220 0.17640 1.0000
B28 B 1 0.19550 0.90780 0.82360 1.0000
B29 B 1 0.69550 0.59220 0.32360 1.0000
B30 B 1 0.30450 0.40780 0.67640 1.0000
B31 B 1 0.30450 0.59220 0.17640 1.0000
B32 B 1 0.69550 0.40780 0.82360 1.0000
B33 B 1 0.25645 0.83890 0.40130 1.0000
B34 B 1 0.74355 0.16110 0.59870 1.0000
B35 B 1 0.74355 0.83890 0.09870 1.0000
B36 B 1 0.25645 0.16110 0.90130 1.0000
B37 B 1 0.75645 0.33890 0.40130 1.0000
B38 B 1 0.24355 0.66110 0.59870 1.0000
B39 B 1 0.24355 0.33890 0.09870 1.0000
B40 B 1 0.75645 0.66110 0.90130 1.0000
B41 B 1 0.15270 0.90740 0.16135 1.0000
B42 B 1 0.84730 0.09260 0.83865 1.0000
B43 B 1 0.84730 0.90740 0.33865 1.0000
B44 B 1 0.15270 0.09260 0.66135 1.0000
B45 B 1 0.65270 0.40740 0.16135 1.0000
B46 B 1 0.34730 0.59260 0.83865 1.0000
B47 B 1 0.34730 0.40740 0.33865 1.0000
B48 B 1 0.65270 0.59260 0.66135 1.0000
B49 B 1 0.08395 0.91420 0.28140 1.0000
B50 B 1 0.91605 0.08580 0.71860 1.0000
B51 B 1 0.91605 0.91420 0.21860 1.0000
B52 B 1 0.08395 0.08580 0.78140 1.0000
B53 B 1 0.58395 0.41420 0.28140 1.0000
B54 B 1 0.41605 0.58580 0.71860 1.0000
B55 B 1 0.41605 0.41420 0.21860 1.0000
B56 B 1 0.58395 0.58580 0.78140 1.0000
B57 B 1 0.34320 0.77610 0.33665 1.0000
B58 B 1 0.65680 0.22390 0.66335 1.0000
B59 B 1 0.65680 0.77610 0.16335 1.0000
B60 B 1 0.34320 0.22390 0.83665 1.0000
B61 B 1 0.84320 0.27610 0.33665 1.0000
B62 B 1 0.15680 0.72390 0.66335 1.0000
B63 B 1 0.15680 0.27610 0.16335 1.0000
B64 B 1 0.84320 0.72390 0.83665 1.0000
B65 B 1 0.06495 0.76100 0.39245 1.0000
B66 B 1 0.93505 0.23900 0.60755 1.0000
B67 B 1 0.93505 0.76100 0.10755 1.0000
B68 B 1 0.06495 0.23900 0.89245 1.0000
B69 B 1 0.56495 0.26100 0.39245 1.0000
B70 B 1 0.43505 0.73900 0.60755 1.0000
B71 B 1 0.43505 0.26100 0.10755 1.0000
B72 B 1 0.56495 0.73900 0.89245 1.0000
B73 B 1 0.08450 0.24830 0.27595 1.0000
B74 B 1 0.91550 0.75170 0.72405 1.0000
B75 B 1 0.91550 0.24830 0.22405 1.0000
B76 B 1 0.08450 0.75170 0.77595 1.0000
B77 B 1 0.58450 0.74830 0.27595 1.0000
B78 B 1 0.41550 0.25170 0.72405 1.0000
B79 B 1 0.41550 0.74830 0.22405 1.0000
B80 B 1 0.58450 0.25170 0.77595 1.0000
#End of data_21_HICGEG

data_22_HIFVUO
_chemical_formula_structural	'Zn(Im)2'
_chemical_formula_sum		'Ar1 B2'
_citation_special_details	'original source structure doi: 10.1002/chem.200700181'
;
File: HIFVUO.cif.
;
_cell_length_a			6.03514
_cell_length_b			6.03514
_cell_length_c			6.27801
_cell_angle_alpha		90.00000
_cell_angle_beta		90.00000
_cell_angle_gamma		90.00000
_cell_volume			228.66342
_cell_formula_units_Z		16
_symmetry_space_group_name_H-M	'P 1'
_symmetry_Int_Tables_number	1
loop_
_symmetry_equiv_pos_site_id
_symmetry_equiv_pos_as_xyz
1 x,y,z
loop_
_atom_site_label
_atom_site_type_symbol
_atom_site_symmetry_multiplicity
_atom_site_fract_x
_atom_site_fract_y
_atom_site_fract_z
_atom_site_occupancy
Ar1 Ar 1 0.68429 0.11813 0.40694 1.0000
Ar2 Ar 1 0.31571 0.88187 0.59306 1.0000
Ar3 Ar 1 0.81571 0.88187 0.90694 1.0000
Ar4 Ar 1 0.18429 0.11813 0.09306 1.0000
Ar5 Ar 1 0.63187 0.93429 0.65694 1.0000
Ar6 Ar 1 0.36813 0.06571 0.34306 1.0000
Ar7 Ar 1 0.86813 0.06571 0.15694 1.0000
Ar8 Ar 1 0.13187 0.93429 0.84306 1.0000
Ar9 Ar 1 0.18429 0.61813 0.90694 1.0000
Ar10 Ar 1 0.81571 0.38187 0.09306 1.0000
Ar11 Ar 1 0.31571 0.38187 0.40694 1.0000
Ar12 Ar 1 0.68429 0.61813 0.59306 1.0000
Ar13 Ar 1 0.13187 0.43429 0.15694 1.0000
Ar14 Ar 1 0.86813 0.56571 0.84306 1.0000
Ar15 Ar 1 0.36813 0.56571 0.65694 1.0000
Ar16 Ar 1 0.63187 0.43429 0.34306 1.0000
B1 B 1 0.68420 0.04585 0.55045 1.0000
B2 B 1 0.31580 0.95415 0.44955 1.0000
B3 B 1 0.81580 0.95415 0.05045 1.0000
B4 B 1 0.18420 0.04585 0.94955 1.0000
B5 B 1 0.70415 0.93420 0.80045 1.0000
B6 B 1 0.29585 0.06580 0.19955 1.0000
B7 B 1 0.79585 0.06580 0.30045 1.0000
B8 B 1 0.20415 0.93420 0.69955 1.0000
B9 B 1 0.18420 0.54585 0.05045 1.0000
B10 B 1 0.81580 0.45415 0.94955 1.0000
B11 B 1 0.31580 0.45415 0.55045 1.0000
B12 B 1 0.68420 0.54585 0.44955 1.0000
B13 B 1 0.20415 0.43420 0.30045 1.0000
B14 B 1 0.79585 0.56580 0.69955 1.0000
B15 B 1 0.29585 0.56580 0.80045 1.0000
B16 B 1 0.70415 0.43420 0.19955 1.0000
B17 B 1 0.53350 0.07110 0.35515 1.0000
B18 B 1 0.46650 0.92890 0.64485 1.0000
B19 B 1 0.96650 0.92890 0.85515 1.0000
B20 B 1 0.03350 0.07110 0.14485 1.0000
B21 B 1 0.67890 0.78350 0.60515 1.0000
B22 B 1 0.32110 0.21650 0.39485 1.0000
B23 B 1 0.82110 0.21650 0.10515 1.0000
B24 B 1 0.17890 0.78350 0.89485 1.0000
B25 B 1 0.03350 0.57110 0.85515 1.0000
B26 B 1 0.96650 0.42890 0.14485 1.0000
B27 B 1 0.46650 0.42890 0.35515 1.0000
B28 B 1 0.53350 0.57110 0.64485 1.0000
B29 B 1 0.17890 0.28350 0.10515 1.0000
B30 B 1 0.82110 0.71650 0.89485 1.0000
B31 B 1 0.32110 0.71650 0.60515 1.0000
B32 B 1 0.67890 0.28350 0.39485 1.0000
#End of data_22_HIFVUO

data_23_GITTEJ
_chemical_name_common		'ZIF64'
_chemical_formula_structural	'Zn(Im)2'
_chemical_formula_sum		'Ar1 B2'
_citation_special_details	'original source structure doi: 10.1126/science.1152516'
;
File: GITTEJ.cif.
;
_cell_length_a			7.02594
_cell_length_b			3.29697
_cell_length_c			7.02594
_cell_angle_alpha		90.00000
_cell_angle_beta		90.00000
_cell_angle_gamma		90.00000
_cell_volume			162.75082
_cell_formula_units_Z		16
_symmetry_space_group_name_H-M	'P 1'
_symmetry_Int_Tables_number	1
loop_
_symmetry_equiv_pos_site_id
_symmetry_equiv_pos_as_xyz
1 x,y,z
loop_
_atom_site_label
_atom_site_type_symbol
_atom_site_symmetry_multiplicity
_atom_site_fract_x
_atom_site_fract_y
_atom_site_fract_z
_atom_site_occupancy
Ar1 Ar 1 0.42135 0.05420 0.35919 1.0000
Ar2 Ar 1 0.57865 0.94580 0.64081 1.0000
Ar3 Ar 1 0.07865 0.05420 0.14081 1.0000
Ar4 Ar 1 0.92135 0.94580 0.85919 1.0000
Ar5 Ar 1 0.35130 0.98040 0.08087 1.0000
Ar6 Ar 1 0.64870 0.01960 0.91913 1.0000
Ar7 Ar 1 0.14870 0.98040 0.41913 1.0000
Ar8 Ar 1 0.85130 0.01960 0.58087 1.0000
Ar9 Ar 1 0.64468 0.51380 0.07364 1.0000
Ar10 Ar 1 0.35532 0.48620 0.92636 1.0000
Ar11 Ar 1 0.85532 0.51380 0.42636 1.0000
Ar12 Ar 1 0.14468 0.48620 0.57364 1.0000
Ar13 Ar 1 0.57783 0.55030 0.34780 1.0000
Ar14 Ar 1 0.42217 0.44970 0.65220 1.0000
Ar15 Ar 1 0.92217 0.55030 0.15220 1.0000
Ar16 Ar 1 0.07783 0.44970 0.84780 1.0000
B1 B 1 0.48560 0.32760 0.38360 1.0000
B2 B 1 0.51440 0.67240 0.61640 1.0000
B3 B 1 0.01440 0.32760 0.11640 1.0000
B4 B 1 0.98560 0.67240 0.88360 1.0000
B5 B 1 0.38655 0.06235 0.21650 1.0000
B6 B 1 0.61345 0.93765 0.78350 1.0000
B7 B 1 0.11345 0.06235 0.28350 1.0000
B8 B 1 0.88655 0.93765 0.71650 1.0000
B9 B 1 0.52010 0.82930 0.37050 1.0000
B10 B 1 0.47990 0.17070 0.62950 1.0000
B11 B 1 0.97990 0.82930 0.12950 1.0000
B12 B 1 0.02010 0.17070 0.87050 1.0000
B13 B 1 0.29370 0.99610 0.41790 1.0000
B14 B 1 0.70630 0.00390 0.58210 1.0000
B15 B 1 0.20630 0.99610 0.08210 1.0000
B16 B 1 0.79370 0.00390 0.91790 1.0000
B17 B 1 0.38200 0.21675 0.99250 1.0000
B18 B 1 0.61800 0.78325 0.00750 1.0000
B19 B 1 0.11800 0.21675 0.50750 1.0000
B20 B 1 0.88200 0.78325 0.49250 1.0000
B21 B 1 0.37975 0.70410 0.02795 1.0000
B22 B 1 0.62025 0.29590 0.97205 1.0000
B23 B 1 0.12025 0.70410 0.47205 1.0000
B24 B 1 0.87975 0.29590 0.52795 1.0000
B25 B 1 0.71180 0.50060 0.39965 1.0000
B26 B 1 0.28820 0.49940 0.60035 1.0000
B27 B 1 0.78820 0.50060 0.10035 1.0000
B28 B 1 0.21180 0.49940 0.89965 1.0000
B29 B 1 0.58825 0.50570 0.20425 1.0000
B30 B 1 0.41175 0.49430 0.79575 1.0000
B31 B 1 0.91175 0.50570 0.29575 1.0000
B32 B 1 0.08825 0.49430 0.70425 1.0000
#End of data_23_GITTEJ

data_24_VEJYIT01
_chemical_formula_structural	'Zn(Im)2'
_chemical_formula_sum		'Ar1 B2'
_citation_special_details	'original source structure doi: 10.1002/chem.200700181'
;
File: VEJYIT01.cif.
;
_cell_length_a			3.21455
_cell_length_b			7.90568
_cell_length_c			7.98833
_cell_angle_alpha		90.00000
_cell_angle_beta		90.00000
_cell_angle_gamma		90.00000
_cell_volume			203.00911
_cell_formula_units_Z		16
_symmetry_space_group_name_H-M	'P 1'
_symmetry_Int_Tables_number	1
loop_
_symmetry_equiv_pos_site_id
_symmetry_equiv_pos_as_xyz
1 x,y,z
loop_
_atom_site_label
_atom_site_type_symbol
_atom_site_symmetry_multiplicity
_atom_site_fract_x
_atom_site_fract_y
_atom_site_fract_z
_atom_site_occupancy
Ar1 Ar 1 0.97534 0.17578 0.50056 1.0000
Ar2 Ar 1 0.02466 0.82422 0.49944 1.0000
Ar3 Ar 1 0.52466 0.82422 0.00056 1.0000
Ar4 Ar 1 0.47534 0.17578 0.99944 1.0000
Ar5 Ar 1 0.02466 0.67578 0.99944 1.0000
Ar6 Ar 1 0.97534 0.32422 0.00056 1.0000
Ar7 Ar 1 0.47534 0.32422 0.49944 1.0000
Ar8 Ar 1 0.52466 0.67578 0.50056 1.0000
Ar9 Ar 1 0.99960 0.99941 0.67663 1.0000
Ar10 Ar 1 0.00040 0.00059 0.32337 1.0000
Ar11 Ar 1 0.50040 0.00059 0.17663 1.0000
Ar12 Ar 1 0.49960 0.99941 0.82337 1.0000
Ar13 Ar 1 0.00040 0.49941 0.82337 1.0000
Ar14 Ar 1 0.99960 0.50059 0.17663 1.0000
Ar15 Ar 1 0.49960 0.50059 0.32337 1.0000
Ar16 Ar 1 0.50040 0.49941 0.67663 1.0000
B1 B 1 0.19885 0.26500 0.51570 1.0000
B2 B 1 0.80115 0.73500 0.48430 1.0000
B3 B 1 0.30115 0.73500 0.01570 1.0000
B4 B 1 0.69885 0.26500 0.98430 1.0000
B5 B 1 0.80115 0.76500 0.98430 1.0000
B6 B 1 0.19885 0.23500 0.01570 1.0000
B7 B 1 0.69885 0.23500 0.48430 1.0000
B8 B 1 0.30115 0.76500 0.51570 1.0000
B9 B 1 0.96065 0.10010 0.60250 1.0000
B10 B 1 0.03935 0.89990 0.39750 1.0000
B11 B 1 0.53935 0.89990 0.10250 1.0000
B12 B 1 0.46065 0.10010 0.89750 1.0000
B13 B 1 0.03935 0.60010 0.89750 1.0000
B14 B 1 0.96065 0.39990 0.10250 1.0000
B15 B 1 0.46065 0.39990 0.39750 1.0000
B16 B 1 0.53935 0.60010 0.60250 1.0000
B17 B 1 0.96645 0.89990 0.59765 1.0000
B18 B 1 0.03355 0.10010 0.40235 1.0000
B19 B 1 0.53355 0.10010 0.09765 1.0000
B20 B 1 0.46645 0.89990 0.90235 1.0000
B21 B 1 0.03355 0.39990 0.90235 1.0000
B22 B 1 0.96645 0.60010 0.09765 1.0000
B23 B 1 0.46645 0.60010 0.40235 1.0000
B24 B 1 0.53355 0.39990 0.59765 1.0000
B25 B 1 0.78285 0.99230 0.76825 1.0000
B26 B 1 0.21715 0.00770 0.23175 1.0000
B27 B 1 0.71715 0.00770 0.26825 1.0000
B28 B 1 0.28285 0.99230 0.73175 1.0000
B29 B 1 0.21715 0.49230 0.73175 1.0000
B30 B 1 0.78285 0.50770 0.26825 1.0000
B31 B 1 0.28285 0.50770 0.23175 1.0000
B32 B 1 0.71715 0.49230 0.76825 1.0000
#End of data_24_VEJYIT01

data_25_NOFQAB
_chemical_name_common		'ZIF95 '
_chemical_formula_structural	'Zn(cbIm)2'
_chemical_formula_sum		'Ar1 B2'
_citation_special_details	'original source structure doi: 10.1038/nature06900'
;
File: NOFQAB.cif.
;
_cell_length_a			13.05901
_cell_length_b			13.05901
_cell_length_c			19.01770
_cell_angle_alpha		90.00000
_cell_angle_beta		90.00000
_cell_angle_gamma		90.00000
_cell_volume			3243.23640
_cell_formula_units_Z		128
_symmetry_space_group_name_H-M	'P 1'
_symmetry_Int_Tables_number	1
loop_
_symmetry_equiv_pos_site_id
_symmetry_equiv_pos_as_xyz
1 x,y,z
loop_
_atom_site_label
_atom_site_type_symbol
_atom_site_symmetry_multiplicity
_atom_site_fract_x
_atom_site_fract_y
_atom_site_fract_z
_atom_site_occupancy
Ar1 Ar 1 0.31680 0.42430 0.33790 1.0000
Ar2 Ar 1 0.68320 0.57570 0.66210 1.0000
Ar3 Ar 1 0.68320 0.57570 0.33790 1.0000
Ar4 Ar 1 0.31680 0.42430 0.66210 1.0000
Ar5 Ar 1 0.57570 0.31680 0.33790 1.0000
Ar6 Ar 1 0.42430 0.68320 0.66210 1.0000
Ar7 Ar 1 0.42430 0.68320 0.33790 1.0000
Ar8 Ar 1 0.57570 0.31680 0.66210 1.0000
Ar9 Ar 1 0.68320 0.42430 0.66210 1.0000
Ar10 Ar 1 0.31680 0.57570 0.33790 1.0000
Ar11 Ar 1 0.31680 0.57570 0.66210 1.0000
Ar12 Ar 1 0.68320 0.42430 0.33790 1.0000
Ar13 Ar 1 0.42430 0.31680 0.66210 1.0000
Ar14 Ar 1 0.57570 0.68320 0.33790 1.0000
Ar15 Ar 1 0.57570 0.68320 0.66210 1.0000
Ar16 Ar 1 0.42430 0.31680 0.33790 1.0000
Ar17 Ar 1 0.81680 0.92430 0.83790 1.0000
Ar18 Ar 1 0.18320 0.07570 0.16210 1.0000
Ar19 Ar 1 0.18320 0.07570 0.83790 1.0000
Ar20 Ar 1 0.81680 0.92430 0.16210 1.0000
Ar21 Ar 1 0.07570 0.81680 0.83790 1.0000
Ar22 Ar 1 0.92430 0.18320 0.16210 1.0000
Ar23 Ar 1 0.92430 0.18320 0.83790 1.0000
Ar24 Ar 1 0.07570 0.81680 0.16210 1.0000
Ar25 Ar 1 0.18320 0.92430 0.16210 1.0000
Ar26 Ar 1 0.81680 0.07570 0.83790 1.0000
Ar27 Ar 1 0.81680 0.07570 0.16210 1.0000
Ar28 Ar 1 0.18320 0.92430 0.83790 1.0000
Ar29 Ar 1 0.92430 0.81680 0.16210 1.0000
Ar30 Ar 1 0.07570 0.18320 0.83790 1.0000
Ar31 Ar 1 0.07570 0.18320 0.16210 1.0000
Ar32 Ar 1 0.92430 0.81680 0.83790 1.0000
Ar33 Ar 1 0.17700 0.42420 0.37260 1.0000
Ar34 Ar 1 0.82300 0.57580 0.62740 1.0000
Ar35 Ar 1 0.82300 0.57580 0.37260 1.0000
Ar36 Ar 1 0.17700 0.42420 0.62740 1.0000
Ar37 Ar 1 0.57580 0.17700 0.37260 1.0000
Ar38 Ar 1 0.42420 0.82300 0.62740 1.0000
Ar39 Ar 1 0.42420 0.82300 0.37260 1.0000
Ar40 Ar 1 0.57580 0.17700 0.62740 1.0000
Ar41 Ar 1 0.82300 0.42420 0.62740 1.0000
Ar42 Ar 1 0.17700 0.57580 0.37260 1.0000
Ar43 Ar 1 0.17700 0.57580 0.62740 1.0000
Ar44 Ar 1 0.82300 0.42420 0.37260 1.0000
Ar45 Ar 1 0.42420 0.17700 0.62740 1.0000
Ar46 Ar 1 0.57580 0.82300 0.37260 1.0000
Ar47 Ar 1 0.57580 0.82300 0.62740 1.0000
Ar48 Ar 1 0.42420 0.17700 0.37260 1.0000
Ar49 Ar 1 0.67700 0.92420 0.87260 1.0000
Ar50 Ar 1 0.32300 0.07580 0.12740 1.0000
Ar51 Ar 1 0.32300 0.07580 0.87260 1.0000
Ar52 Ar 1 0.67700 0.92420 0.12740 1.0000
Ar53 Ar 1 0.07580 0.67700 0.87260 1.0000
Ar54 Ar 1 0.92420 0.32300 0.12740 1.0000
Ar55 Ar 1 0.92420 0.32300 0.87260 1.0000
Ar56 Ar 1 0.07580 0.67700 0.12740 1.0000
Ar57 Ar 1 0.32300 0.92420 0.12740 1.0000
Ar58 Ar 1 0.67700 0.07580 0.87260 1.0000
Ar59 Ar 1 0.67700 0.07580 0.12740 1.0000
Ar60 Ar 1 0.32300 0.92420 0.87260 1.0000
Ar61 Ar 1 0.92420 0.67700 0.12740 1.0000
Ar62 Ar 1 0.07580 0.32300 0.87260 1.0000
Ar63 Ar 1 0.07580 0.32300 0.12740 1.0000
Ar64 Ar 1 0.92420 0.67700 0.87260 1.0000
Ar65 Ar 1 0.21980 0.32620 0.29770 1.0000
Ar66 Ar 1 0.78020 0.67380 0.70230 1.0000
Ar67 Ar 1 0.78020 0.67380 0.29770 1.0000
Ar68 Ar 1 0.21980 0.32620 0.70230 1.0000
Ar69 Ar 1 0.67380 0.21980 0.29770 1.0000
Ar70 Ar 1 0.32620 0.78020 0.70230 1.0000
Ar71 Ar 1 0.32620 0.78020 0.29770 1.0000
Ar72 Ar 1 0.67380 0.21980 0.70230 1.0000
Ar73 Ar 1 0.78020 0.32620 0.70230 1.0000
Ar74 Ar 1 0.21980 0.67380 0.29770 1.0000
Ar75 Ar 1 0.21980 0.67380 0.70230 1.0000
Ar76 Ar 1 0.78020 0.32620 0.29770 1.0000
Ar77 Ar 1 0.32620 0.21980 0.70230 1.0000
Ar78 Ar 1 0.67380 0.78020 0.29770 1.0000
Ar79 Ar 1 0.67380 0.78020 0.70230 1.0000
Ar80 Ar 1 0.32620 0.21980 0.29770 1.0000
Ar81 Ar 1 0.71980 0.82620 0.79770 1.0000
Ar82 Ar 1 0.28020 0.17380 0.20230 1.0000
Ar83 Ar 1 0.28020 0.17380 0.79770 1.0000
Ar84 Ar 1 0.71980 0.82620 0.20230 1.0000
Ar85 Ar 1 0.17380 0.71980 0.79770 1.0000
Ar86 Ar 1 0.82620 0.28020 0.20230 1.0000
Ar87 Ar 1 0.82620 0.28020 0.79770 1.0000
Ar88 Ar 1 0.17380 0.71980 0.20230 1.0000
Ar89 Ar 1 0.28020 0.82620 0.20230 1.0000
Ar90 Ar 1 0.71980 0.17380 0.79770 1.0000
Ar91 Ar 1 0.71980 0.17380 0.20230 1.0000
Ar92 Ar 1 0.28020 0.82620 0.79770 1.0000
Ar93 Ar 1 0.82620 0.71980 0.20230 1.0000
Ar94 Ar 1 0.17380 0.28020 0.79770 1.0000
Ar95 Ar 1 0.17380 0.28020 0.20230 1.0000
Ar96 Ar 1 0.82620 0.71980 0.79770 1.0000
Ar97 Ar 1 0.07350 0.42350 0.44810 1.0000
Ar98 Ar 1 0.92650 0.57650 0.55190 1.0000
Ar99 Ar 1 0.92650 0.57650 0.44810 1.0000
Ar100 Ar 1 0.07350 0.42350 0.55190 1.0000
Ar101 Ar 1 0.57650 0.07350 0.44810 1.0000
Ar102 Ar 1 0.42350 0.92650 0.55190 1.0000
Ar103 Ar 1 0.42350 0.92650 0.44810 1.0000
Ar104 Ar 1 0.57650 0.07350 0.55190 1.0000
Ar105 Ar 1 0.92650 0.42350 0.55190 1.0000
Ar106 Ar 1 0.07350 0.57650 0.44810 1.0000
Ar107 Ar 1 0.07350 0.57650 0.55190 1.0000
Ar108 Ar 1 0.92650 0.42350 0.44810 1.0000
Ar109 Ar 1 0.42350 0.07350 0.55190 1.0000
Ar110 Ar 1 0.57650 0.92650 0.44810 1.0000
Ar111 Ar 1 0.57650 0.92650 0.55190 1.0000
Ar112 Ar 1 0.42350 0.07350 0.44810 1.0000
Ar113 Ar 1 0.57350 0.92350 0.94810 1.0000
Ar114 Ar 1 0.42650 0.07650 0.05190 1.0000
Ar115 Ar 1 0.42650 0.07650 0.94810 1.0000
Ar116 Ar 1 0.57350 0.92350 0.05190 1.0000
Ar117 Ar 1 0.07650 0.57350 0.94810 1.0000
Ar118 Ar 1 0.92350 0.42650 0.05190 1.0000
Ar119 Ar 1 0.92350 0.42650 0.94810 1.0000
Ar120 Ar 1 0.07650 0.57350 0.05190 1.0000
Ar121 Ar 1 0.42650 0.92350 0.05190 1.0000
Ar122 Ar 1 0.57350 0.07650 0.94810 1.0000
Ar123 Ar 1 0.57350 0.07650 0.05190 1.0000
Ar124 Ar 1 0.42650 0.92350 0.94810 1.0000
Ar125 Ar 1 0.92350 0.57350 0.05190 1.0000
Ar126 Ar 1 0.07650 0.42650 0.94810 1.0000
Ar127 Ar 1 0.07650 0.42650 0.05190 1.0000
Ar128 Ar 1 0.92350 0.57350 0.94810 1.0000
B1 B 1 0.32890 0.50000 0.32970 1.0000
B2 B 1 0.67110 0.50000 0.67030 1.0000
B3 B 1 0.67110 0.50000 0.32970 1.0000
B4 B 1 0.32890 0.50000 0.67030 1.0000
B5 B 1 0.50000 0.32890 0.32970 1.0000
B6 B 1 0.50000 0.67110 0.67030 1.0000
B7 B 1 0.50000 0.67110 0.32970 1.0000
B8 B 1 0.50000 0.32890 0.67030 1.0000
B9 B 1 0.82890 0.00000 0.82970 1.0000
B10 B 1 0.17110 0.00000 0.17030 1.0000
B11 B 1 0.17110 0.00000 0.82970 1.0000
B12 B 1 0.82890 0.00000 0.17030 1.0000
B13 B 1 0.00000 0.82890 0.82970 1.0000
B14 B 1 0.00000 0.17110 0.17030 1.0000
B15 B 1 0.00000 0.17110 0.82970 1.0000
B16 B 1 0.00000 0.82890 0.17030 1.0000
B17 B 1 0.27585 0.38130 0.30305 1.0000
B18 B 1 0.72415 0.61870 0.69695 1.0000
B19 B 1 0.72415 0.61870 0.30305 1.0000
B20 B 1 0.27585 0.38130 0.69695 1.0000
B21 B 1 0.61870 0.27585 0.30305 1.0000
B22 B 1 0.38130 0.72415 0.69695 1.0000
B23 B 1 0.38130 0.72415 0.30305 1.0000
B24 B 1 0.61870 0.27585 0.69695 1.0000
B25 B 1 0.72415 0.38130 0.69695 1.0000
B26 B 1 0.27585 0.61870 0.30305 1.0000
B27 B 1 0.27585 0.61870 0.69695 1.0000
B28 B 1 0.72415 0.38130 0.30305 1.0000
B29 B 1 0.38130 0.27585 0.69695 1.0000
B30 B 1 0.61870 0.72415 0.30305 1.0000
B31 B 1 0.61870 0.72415 0.69695 1.0000
B32 B 1 0.38130 0.27585 0.30305 1.0000
B33 B 1 0.77585 0.88130 0.80305 1.0000
B34 B 1 0.22415 0.11870 0.19695 1.0000
B35 B 1 0.22415 0.11870 0.80305 1.0000
B36 B 1 0.77585 0.88130 0.19695 1.0000
B37 B 1 0.11870 0.77585 0.80305 1.0000
B38 B 1 0.88130 0.22415 0.19695 1.0000
B39 B 1 0.88130 0.22415 0.80305 1.0000
B40 B 1 0.11870 0.77585 0.19695 1.0000
B41 B 1 0.22415 0.88130 0.19695 1.0000
B42 B 1 0.77585 0.11870 0.80305 1.0000
B43 B 1 0.77585 0.11870 0.19695 1.0000
B44 B 1 0.22415 0.88130 0.80305 1.0000
B45 B 1 0.88130 0.77585 0.19695 1.0000
B46 B 1 0.11870 0.22415 0.80305 1.0000
B47 B 1 0.11870 0.22415 0.19695 1.0000
B48 B 1 0.88130 0.77585 0.80305 1.0000
B49 B 1 0.25640 0.42605 0.37020 1.0000
B50 B 1 0.74360 0.57395 0.62980 1.0000
B51 B 1 0.74360 0.57395 0.37020 1.0000
B52 B 1 0.25640 0.42605 0.62980 1.0000
B53 B 1 0.57395 0.25640 0.37020 1.0000
B54 B 1 0.42605 0.74360 0.62980 1.0000
B55 B 1 0.42605 0.74360 0.37020 1.0000
B56 B 1 0.57395 0.25640 0.62980 1.0000
B57 B 1 0.74360 0.42605 0.62980 1.0000
B58 B 1 0.25640 0.57395 0.37020 1.0000
B59 B 1 0.25640 0.57395 0.62980 1.0000
B60 B 1 0.74360 0.42605 0.37020 1.0000
B61 B 1 0.42605 0.25640 0.62980 1.0000
B62 B 1 0.57395 0.74360 0.37020 1.0000
B63 B 1 0.57395 0.74360 0.62980 1.0000
B64 B 1 0.42605 0.25640 0.37020 1.0000
B65 B 1 0.75640 0.92605 0.87020 1.0000
B66 B 1 0.24360 0.07395 0.12980 1.0000
B67 B 1 0.24360 0.07395 0.87020 1.0000
B68 B 1 0.75640 0.92605 0.12980 1.0000
B69 B 1 0.07395 0.75640 0.87020 1.0000
B70 B 1 0.92605 0.24360 0.12980 1.0000
B71 B 1 0.92605 0.24360 0.87020 1.0000
B72 B 1 0.07395 0.75640 0.12980 1.0000
B73 B 1 0.24360 0.92605 0.12980 1.0000
B74 B 1 0.75640 0.07395 0.87020 1.0000
B75 B 1 0.75640 0.07395 0.12980 1.0000
B76 B 1 0.24360 0.92605 0.87020 1.0000
B77 B 1 0.92605 0.75640 0.12980 1.0000
B78 B 1 0.07395 0.24360 0.87020 1.0000
B79 B 1 0.07395 0.24360 0.12980 1.0000
B80 B 1 0.92605 0.75640 0.87020 1.0000
B81 B 1 0.18440 0.31560 0.25000 1.0000
B82 B 1 0.81560 0.68440 0.75000 1.0000
B83 B 1 0.81560 0.68440 0.25000 1.0000
B84 B 1 0.18440 0.31560 0.75000 1.0000
B85 B 1 0.68440 0.18440 0.25000 1.0000
B86 B 1 0.31560 0.81560 0.75000 1.0000
B87 B 1 0.31560 0.81560 0.25000 1.0000
B88 B 1 0.68440 0.18440 0.75000 1.0000
B89 B 1 0.81560 0.31560 0.75000 1.0000
B90 B 1 0.18440 0.68440 0.25000 1.0000
B91 B 1 0.18440 0.68440 0.75000 1.0000
B92 B 1 0.81560 0.31560 0.25000 1.0000
B93 B 1 0.31560 0.18440 0.75000 1.0000
B94 B 1 0.68440 0.81560 0.25000 1.0000
B95 B 1 0.68440 0.81560 0.75000 1.0000
B96 B 1 0.31560 0.18440 0.25000 1.0000
B97 B 1 0.26190 0.26190 0.30490 1.0000
B98 B 1 0.73810 0.73810 0.69510 1.0000
B99 B 1 0.73810 0.73810 0.30490 1.0000
B100 B 1 0.26190 0.26190 0.69510 1.0000
B101 B 1 0.73810 0.26190 0.30490 1.0000
B102 B 1 0.26190 0.73810 0.69510 1.0000
B103 B 1 0.26190 0.73810 0.30490 1.0000
B104 B 1 0.73810 0.26190 0.69510 1.0000
B105 B 1 0.76190 0.76190 0.80490 1.0000
B106 B 1 0.23810 0.23810 0.19510 1.0000
B107 B 1 0.23810 0.23810 0.80490 1.0000
B108 B 1 0.76190 0.76190 0.19510 1.0000
B109 B 1 0.23810 0.76190 0.80490 1.0000
B110 B 1 0.76190 0.23810 0.19510 1.0000
B111 B 1 0.76190 0.23810 0.80490 1.0000
B112 B 1 0.23810 0.76190 0.19510 1.0000
B113 B 1 0.18025 0.36635 0.33470 1.0000
B114 B 1 0.81975 0.63365 0.66530 1.0000
B115 B 1 0.81975 0.63365 0.33470 1.0000
B116 B 1 0.18025 0.36635 0.66530 1.0000
B117 B 1 0.63365 0.18025 0.33470 1.0000
B118 B 1 0.36635 0.81975 0.66530 1.0000
B119 B 1 0.36635 0.81975 0.33470 1.0000
B120 B 1 0.63365 0.18025 0.66530 1.0000
B121 B 1 0.81975 0.36635 0.66530 1.0000
B122 B 1 0.18025 0.63365 0.33470 1.0000
B123 B 1 0.18025 0.63365 0.66530 1.0000
B124 B 1 0.81975 0.36635 0.33470 1.0000
B125 B 1 0.36635 0.18025 0.66530 1.0000
B126 B 1 0.63365 0.81975 0.33470 1.0000
B127 B 1 0.63365 0.81975 0.66530 1.0000
B128 B 1 0.36635 0.18025 0.33470 1.0000
B129 B 1 0.68025 0.86635 0.83470 1.0000
B130 B 1 0.31975 0.13365 0.16530 1.0000
B131 B 1 0.31975 0.13365 0.83470 1.0000
B132 B 1 0.68025 0.86635 0.16530 1.0000
B133 B 1 0.13365 0.68025 0.83470 1.0000
B134 B 1 0.86635 0.31975 0.16530 1.0000
B135 B 1 0.86635 0.31975 0.83470 1.0000
B136 B 1 0.13365 0.68025 0.16530 1.0000
B137 B 1 0.31975 0.86635 0.16530 1.0000
B138 B 1 0.68025 0.13365 0.83470 1.0000
B139 B 1 0.68025 0.13365 0.16530 1.0000
B140 B 1 0.31975 0.86635 0.83470 1.0000
B141 B 1 0.86635 0.68025 0.16530 1.0000
B142 B 1 0.13365 0.31975 0.83470 1.0000
B143 B 1 0.13365 0.31975 0.16530 1.0000
B144 B 1 0.86635 0.68025 0.83470 1.0000
B145 B 1 0.16210 0.50000 0.36350 1.0000
B146 B 1 0.83790 0.50000 0.63650 1.0000
B147 B 1 0.83790 0.50000 0.36350 1.0000
B148 B 1 0.16210 0.50000 0.63650 1.0000
B149 B 1 0.50000 0.16210 0.36350 1.0000
B150 B 1 0.50000 0.83790 0.63650 1.0000
B151 B 1 0.50000 0.83790 0.36350 1.0000
B152 B 1 0.50000 0.16210 0.63650 1.0000
B153 B 1 0.66210 1.00000 0.86350 1.0000
B154 B 1 0.33790 1.00000 0.13650 1.0000
B155 B 1 0.33790 1.00000 0.86350 1.0000
B156 B 1 0.66210 1.00000 0.13650 1.0000
B157 B 1 1.00000 0.66210 0.86350 1.0000
B158 B 1 1.00000 0.33790 0.13650 1.0000
B159 B 1 1.00000 0.33790 0.86350 1.0000
B160 B 1 1.00000 0.66210 0.13650 1.0000
B161 B 1 0.12715 0.40605 0.41230 1.0000
B162 B 1 0.87285 0.59395 0.58770 1.0000
B163 B 1 0.87285 0.59395 0.41230 1.0000
B164 B 1 0.12715 0.40605 0.58770 1.0000
B165 B 1 0.59395 0.12715 0.41230 1.0000
B166 B 1 0.40605 0.87285 0.58770 1.0000
B167 B 1 0.40605 0.87285 0.41230 1.0000
B168 B 1 0.59395 0.12715 0.58770 1.0000
B169 B 1 0.87285 0.40605 0.58770 1.0000
B170 B 1 0.12715 0.59395 0.41230 1.0000
B171 B 1 0.12715 0.59395 0.58770 1.0000
B172 B 1 0.87285 0.40605 0.41230 1.0000
B173 B 1 0.40605 0.12715 0.58770 1.0000
B174 B 1 0.59395 0.87285 0.41230 1.0000
B175 B 1 0.59395 0.87285 0.58770 1.0000
B176 B 1 0.40605 0.12715 0.41230 1.0000
B177 B 1 0.62715 0.90605 0.91230 1.0000
B178 B 1 0.37285 0.09395 0.08770 1.0000
B179 B 1 0.37285 0.09395 0.91230 1.0000
B180 B 1 0.62715 0.90605 0.08770 1.0000
B181 B 1 0.09395 0.62715 0.91230 1.0000
B182 B 1 0.90605 0.37285 0.08770 1.0000
B183 B 1 0.90605 0.37285 0.91230 1.0000
B184 B 1 0.09395 0.62715 0.08770 1.0000
B185 B 1 0.37285 0.90605 0.08770 1.0000
B186 B 1 0.62715 0.09395 0.91230 1.0000
B187 B 1 0.62715 0.09395 0.08770 1.0000
B188 B 1 0.37285 0.90605 0.91230 1.0000
B189 B 1 0.90605 0.62715 0.08770 1.0000
B190 B 1 0.09395 0.37285 0.91230 1.0000
B191 B 1 0.09395 0.37285 0.08770 1.0000
B192 B 1 0.90605 0.62715 0.91230 1.0000
B193 B 1 0.37815 0.37815 0.34540 1.0000
B194 B 1 0.62185 0.62185 0.65460 1.0000
B195 B 1 0.62185 0.62185 0.34540 1.0000
B196 B 1 0.37815 0.37815 0.65460 1.0000
B197 B 1 0.62185 0.37815 0.34540 1.0000
B198 B 1 0.37815 0.62185 0.65460 1.0000
B199 B 1 0.37815 0.62185 0.34540 1.0000
B200 B 1 0.62185 0.37815 0.65460 1.0000
B201 B 1 0.87815 0.87815 0.84540 1.0000
B202 B 1 0.12185 0.12185 0.15460 1.0000
B203 B 1 0.12185 0.12185 0.84540 1.0000
B204 B 1 0.87815 0.87815 0.15460 1.0000
B205 B 1 0.12185 0.87815 0.84540 1.0000
B206 B 1 0.87815 0.12185 0.15460 1.0000
B207 B 1 0.87815 0.12185 0.84540 1.0000
B208 B 1 0.12185 0.87815 0.15460 1.0000
B209 B 1 0.06500 0.50000 0.43520 1.0000
B210 B 1 0.93500 0.50000 0.56480 1.0000
B211 B 1 0.93500 0.50000 0.43520 1.0000
B212 B 1 0.06500 0.50000 0.56480 1.0000
B213 B 1 0.50000 0.06500 0.43520 1.0000
B214 B 1 0.50000 0.93500 0.56480 1.0000
B215 B 1 0.50000 0.93500 0.43520 1.0000
B216 B 1 0.50000 0.06500 0.56480 1.0000
B217 B 1 0.56500 0.00000 0.93520 1.0000
B218 B 1 0.43500 0.00000 0.06480 1.0000
B219 B 1 0.43500 0.00000 0.93520 1.0000
B220 B 1 0.56500 0.00000 0.06480 1.0000
B221 B 1 0.00000 0.56500 0.93520 1.0000
B222 B 1 0.00000 0.43500 0.06480 1.0000
B223 B 1 0.00000 0.43500 0.93520 1.0000
B224 B 1 0.00000 0.56500 0.06480 1.0000
B225 B 1 0.09350 0.42570 0.50000 1.0000
B226 B 1 0.90650 0.57430 0.50000 1.0000
B227 B 1 0.57430 0.09350 0.50000 1.0000
B228 B 1 0.42570 0.90650 0.50000 1.0000
B229 B 1 0.90650 0.42570 0.50000 1.0000
B230 B 1 0.09350 0.57430 0.50000 1.0000
B231 B 1 0.42570 0.09350 0.50000 1.0000
B232 B 1 0.57430 0.90650 0.50000 1.0000
B233 B 1 0.59350 0.92570 0.00000 1.0000
B234 B 1 0.40650 0.07430 0.00000 1.0000
B235 B 1 0.07430 0.59350 0.00000 1.0000
B236 B 1 0.92570 0.40650 0.00000 1.0000
B237 B 1 0.40650 0.92570 0.00000 1.0000
B238 B 1 0.59350 0.07430 0.00000 1.0000
B239 B 1 0.92570 0.59350 0.00000 1.0000
B240 B 1 0.07430 0.40650 0.00000 1.0000
B241 B 1 1.00000 0.40200 0.44880 1.0000
B242 B 1 1.00000 0.59800 0.55120 1.0000
B243 B 1 1.00000 0.59800 0.44880 1.0000
B244 B 1 1.00000 0.40200 0.55120 1.0000
B245 B 1 0.59800 1.00000 0.44880 1.0000
B246 B 1 0.40200 1.00000 0.55120 1.0000
B247 B 1 0.40200 1.00000 0.44880 1.0000
B248 B 1 0.59800 1.00000 0.55120 1.0000
B249 B 1 0.50000 0.90200 0.94880 1.0000
B250 B 1 0.50000 0.09800 0.05120 1.0000
B251 B 1 0.50000 0.09800 0.94880 1.0000
B252 B 1 0.50000 0.90200 0.05120 1.0000
B253 B 1 0.09800 0.50000 0.94880 1.0000
B254 B 1 0.90200 0.50000 0.05120 1.0000
B255 B 1 0.90200 0.50000 0.94880 1.0000
B256 B 1 0.09800 0.50000 0.05120 1.0000
#End of data_25_NOFQAB

data_26_GITVUB
_chemical_name_common		'ZIF74Â  '
_chemical_formula_structural	'Zn(mbIm)(nIm)'
_chemical_formula_sum		'Ar1 B2'
_citation_special_details	'original source structure doi: 10.1126/science.1152516'
;
File: GITVUB.cif.
;
_cell_length_a			5.45920
_cell_length_b			5.45920
_cell_length_c			7.07444
_cell_angle_alpha		90.00000
_cell_angle_beta		90.00000
_cell_angle_gamma		90.00000
_cell_volume			210.83887
_cell_formula_units_Z		16
_symmetry_space_group_name_H-M	'P 1'
_symmetry_Int_Tables_number	1
loop_
_symmetry_equiv_pos_site_id
_symmetry_equiv_pos_as_xyz
1 x,y,z
loop_
_atom_site_label
_atom_site_type_symbol
_atom_site_symmetry_multiplicity
_atom_site_fract_x
_atom_site_fract_y
_atom_site_fract_z
_atom_site_occupancy
Ar1 Ar 1 0.30024 0.08869 0.39295 1.0000
Ar2 Ar 1 0.69976 0.91131 0.60705 1.0000
Ar3 Ar 1 0.19976 0.91131 0.89295 1.0000
Ar4 Ar 1 0.80024 0.08869 0.10705 1.0000
Ar5 Ar 1 0.66131 0.55024 0.64295 1.0000
Ar6 Ar 1 0.33869 0.44976 0.35705 1.0000
Ar7 Ar 1 0.83869 0.44976 0.14295 1.0000
Ar8 Ar 1 0.16131 0.55024 0.85705 1.0000
Ar9 Ar 1 0.80024 0.58869 0.89295 1.0000
Ar10 Ar 1 0.19976 0.41131 0.10705 1.0000
Ar11 Ar 1 0.69976 0.41131 0.39295 1.0000
Ar12 Ar 1 0.30024 0.58869 0.60705 1.0000
Ar13 Ar 1 0.16131 0.05024 0.14295 1.0000
Ar14 Ar 1 0.83869 0.94976 0.85705 1.0000
Ar15 Ar 1 0.33869 0.94976 0.64295 1.0000
Ar16 Ar 1 0.66131 0.05024 0.35705 1.0000
B1 B 1 0.28475 0.27440 0.38400 1.0000
B2 B 1 0.71525 0.72560 0.61600 1.0000
B3 B 1 0.21525 0.72560 0.88400 1.0000
B4 B 1 0.78475 0.27440 0.11600 1.0000
B5 B 1 0.47560 0.53475 0.63400 1.0000
B6 B 1 0.52440 0.46525 0.36600 1.0000
B7 B 1 0.02440 0.46525 0.13400 1.0000
B8 B 1 0.97560 0.53475 0.86600 1.0000
B9 B 1 0.78475 0.77440 0.88400 1.0000
B10 B 1 0.21525 0.22560 0.11600 1.0000
B11 B 1 0.71525 0.22560 0.38400 1.0000
B12 B 1 0.28475 0.77440 0.61600 1.0000
B13 B 1 0.97560 0.03475 0.13400 1.0000
B14 B 1 0.02440 0.96525 0.86600 1.0000
B15 B 1 0.52440 0.96525 0.63400 1.0000
B16 B 1 0.47560 0.03475 0.36600 1.0000
B17 B 1 0.21654 0.02675 0.27650 1.0000
B18 B 1 0.78346 0.97325 0.72350 1.0000
B19 B 1 0.28346 0.97325 0.77650 1.0000
B20 B 1 0.71654 0.02675 0.22350 1.0000
B21 B 1 0.72325 0.46654 0.52650 1.0000
B22 B 1 0.27675 0.53346 0.47350 1.0000
B23 B 1 0.77675 0.53346 0.02650 1.0000
B24 B 1 0.22325 0.46654 0.97350 1.0000
B25 B 1 0.71654 0.52675 0.77650 1.0000
B26 B 1 0.28346 0.47325 0.22350 1.0000
B27 B 1 0.78346 0.47325 0.27650 1.0000
B28 B 1 0.21654 0.52675 0.72350 1.0000
B29 B 1 0.22325 0.96654 0.02650 1.0000
B30 B 1 0.77675 0.03345 0.97350 1.0000
B31 B 1 0.27675 0.03345 0.52650 1.0000
B32 B 1 0.72325 0.96654 0.47350 1.0000
#End of data_26_GITVUB

data_27_LODCUC
_chemical_formula_structural	'Fe(mIm)2'
_chemical_formula_sum		'Ar1 B2'
_citation_special_details	'original source structure doi: 10.1139/cjc-77-4-425'
;
File: LODCUC.cif.
;
_cell_length_a			2.62362
_cell_length_b			4.99338
_cell_length_c			6.29078
_cell_angle_alpha		90.00000
_cell_angle_beta		90.00000
_cell_angle_gamma		90.00000
_cell_volume			82.41382
_cell_formula_units_Z		8
_symmetry_space_group_name_H-M	'P 1'
_symmetry_Int_Tables_number	1
loop_
_symmetry_equiv_pos_site_id
_symmetry_equiv_pos_as_xyz
1 x,y,z
loop_
_atom_site_label
_atom_site_type_symbol
_atom_site_symmetry_multiplicity
_atom_site_fract_x
_atom_site_fract_y
_atom_site_fract_z
_atom_site_occupancy
Ar1 Ar 1 0.20726 0.16979 0.34343 1.0000
Ar2 Ar 1 0.79274 0.83021 0.65657 1.0000
Ar3 Ar 1 0.79274 0.83021 0.34343 1.0000
Ar4 Ar 1 0.20726 0.16979 0.65657 1.0000
Ar5 Ar 1 0.29274 0.66979 0.15657 1.0000
Ar6 Ar 1 0.70726 0.33021 0.84343 1.0000
Ar7 Ar 1 0.70726 0.33021 0.15657 1.0000
Ar8 Ar 1 0.29274 0.66979 0.84343 1.0000
B1 B 1 0.48300 0.20025 0.23638 1.0000
B2 B 1 0.51700 0.79975 0.76362 1.0000
B3 B 1 0.51700 0.79975 0.23638 1.0000
B4 B 1 0.48300 0.20025 0.76362 1.0000
B5 B 1 0.01700 0.70025 0.26362 1.0000
B6 B 1 0.98300 0.29975 0.73638 1.0000
B7 B 1 0.98300 0.29975 0.26362 1.0000
B8 B 1 0.01700 0.70025 0.73638 1.0000
B9 B 1 0.28830 0.18260 0.50000 1.0000
B10 B 1 0.71170 0.81740 0.50000 1.0000
B11 B 1 0.21170 0.68260 0.00000 1.0000
B12 B 1 0.78830 0.31740 0.00000 1.0000
B13 B 1 0.00000 1.00000 0.34250 1.0000
B14 B 1 0.00000 1.00000 0.65750 1.0000
B15 B 1 0.50000 0.50000 0.15750 1.0000
B16 B 1 0.50000 0.50000 0.84250 1.0000
#End of data_27_LODCUC

data_28_VEJZOA
_chemical_name_common		'ZIF11Â  '
_chemical_formula_structural	'Zn(bIm)2'
_chemical_formula_sum		'Ar1 B2'
_citation_special_details	'original source structure doi: 10.1073/pnas.0602439103'
;
File: VEJZOA.cif.
;
_cell_length_a			9.47791
_cell_length_b			9.47791
_cell_length_c			9.47791
_cell_angle_alpha		90.00000
_cell_angle_beta		90.00000
_cell_angle_gamma		90.00000
_cell_volume			851.40850
_cell_formula_units_Z		48
_symmetry_space_group_name_H-M	'P 1'
_symmetry_Int_Tables_number	1
loop_
_symmetry_equiv_pos_site_id
_symmetry_equiv_pos_as_xyz
1 x,y,z
loop_
_atom_site_label
_atom_site_type_symbol
_atom_site_symmetry_multiplicity
_atom_site_fract_x
_atom_site_fract_y
_atom_site_fract_z
_atom_site_occupancy
Ar1 Ar 1 0.39623 0.10429 0.25197 1.0000
Ar2 Ar 1 0.60377 0.89571 0.74803 1.0000
Ar3 Ar 1 0.60377 0.89571 0.25197 1.0000
Ar4 Ar 1 0.39623 0.10429 0.74803 1.0000
Ar5 Ar 1 0.60377 0.10429 0.74803 1.0000
Ar6 Ar 1 0.39623 0.89571 0.25197 1.0000
Ar7 Ar 1 0.39623 0.89571 0.74803 1.0000
Ar8 Ar 1 0.60377 0.10429 0.25197 1.0000
Ar9 Ar 1 0.25197 0.39623 0.10429 1.0000
Ar10 Ar 1 0.74803 0.60377 0.89571 1.0000
Ar11 Ar 1 0.25197 0.60377 0.89571 1.0000
Ar12 Ar 1 0.74803 0.39623 0.10429 1.0000
Ar13 Ar 1 0.74803 0.60377 0.10429 1.0000
Ar14 Ar 1 0.25197 0.39623 0.89571 1.0000
Ar15 Ar 1 0.74803 0.39623 0.89571 1.0000
Ar16 Ar 1 0.25197 0.60377 0.10429 1.0000
Ar17 Ar 1 0.10429 0.25197 0.39623 1.0000
Ar18 Ar 1 0.89571 0.74803 0.60377 1.0000
Ar19 Ar 1 0.89571 0.25197 0.60377 1.0000
Ar20 Ar 1 0.10429 0.74803 0.39623 1.0000
Ar21 Ar 1 0.10429 0.74803 0.60377 1.0000
Ar22 Ar 1 0.89571 0.25197 0.39623 1.0000
Ar23 Ar 1 0.89571 0.74803 0.39623 1.0000
Ar24 Ar 1 0.10429 0.25197 0.60377 1.0000
Ar25 Ar 1 0.10429 0.39623 0.74803 1.0000
Ar26 Ar 1 0.89571 0.60377 0.25197 1.0000
Ar27 Ar 1 0.89571 0.60377 0.74803 1.0000
Ar28 Ar 1 0.10429 0.39623 0.25197 1.0000
Ar29 Ar 1 0.10429 0.60377 0.25197 1.0000
Ar30 Ar 1 0.89571 0.39623 0.74803 1.0000
Ar31 Ar 1 0.89571 0.39623 0.25197 1.0000
Ar32 Ar 1 0.10429 0.60377 0.74803 1.0000
Ar33 Ar 1 0.39623 0.25197 0.89571 1.0000
Ar34 Ar 1 0.60377 0.74803 0.10429 1.0000
Ar35 Ar 1 0.60377 0.25197 0.10429 1.0000
Ar36 Ar 1 0.39623 0.74803 0.89571 1.0000
Ar37 Ar 1 0.60377 0.74803 0.89571 1.0000
Ar38 Ar 1 0.39623 0.25197 0.10429 1.0000
Ar39 Ar 1 0.39623 0.74803 0.10429 1.0000
Ar40 Ar 1 0.60377 0.25197 0.89571 1.0000
Ar41 Ar 1 0.25197 0.10429 0.60377 1.0000
Ar42 Ar 1 0.74803 0.89571 0.39623 1.0000
Ar43 Ar 1 0.25197 0.89571 0.39623 1.0000
Ar44 Ar 1 0.74803 0.10429 0.60377 1.0000
Ar45 Ar 1 0.74803 0.10429 0.39623 1.0000
Ar46 Ar 1 0.25197 0.89571 0.60377 1.0000
Ar47 Ar 1 0.74803 0.89571 0.60377 1.0000
Ar48 Ar 1 0.25197 0.10429 0.39623 1.0000
B1 B 1 0.37510 0.00000 0.24400 1.0000
B2 B 1 0.62490 0.00000 0.75600 1.0000
B3 B 1 0.62490 0.00000 0.24400 1.0000
B4 B 1 0.37510 0.00000 0.75600 1.0000
B5 B 1 0.24400 0.37510 0.00000 1.0000
B6 B 1 0.75600 0.62490 0.00000 1.0000
B7 B 1 0.24400 0.62490 0.00000 1.0000
B8 B 1 0.75600 0.37510 0.00000 1.0000
B9 B 1 0.00000 0.24400 0.37510 1.0000
B10 B 1 0.00000 0.75600 0.62490 1.0000
B11 B 1 0.00000 0.24400 0.62490 1.0000
B12 B 1 0.00000 0.75600 0.37510 1.0000
B13 B 1 0.00000 0.37510 0.75600 1.0000
B14 B 1 0.00000 0.62490 0.24400 1.0000
B15 B 1 0.00000 0.62490 0.75600 1.0000
B16 B 1 0.00000 0.37510 0.24400 1.0000
B17 B 1 0.37510 0.24400 0.00000 1.0000
B18 B 1 0.62490 0.75600 0.00000 1.0000
B19 B 1 0.62490 0.24400 0.00000 1.0000
B20 B 1 0.37510 0.75600 0.00000 1.0000
B21 B 1 0.24400 0.00000 0.62490 1.0000
B22 B 1 0.75600 0.00000 0.37510 1.0000
B23 B 1 0.24400 0.00000 0.37510 1.0000
B24 B 1 0.75600 0.00000 0.62490 1.0000
B25 B 1 0.39920 0.16320 0.16320 1.0000
B26 B 1 0.60080 0.83680 0.83680 1.0000
B27 B 1 0.60080 0.83680 0.16320 1.0000
B28 B 1 0.39920 0.16320 0.83680 1.0000
B29 B 1 0.60080 0.16320 0.83680 1.0000
B30 B 1 0.39920 0.83680 0.16320 1.0000
B31 B 1 0.39920 0.83680 0.83680 1.0000
B32 B 1 0.60080 0.16320 0.16320 1.0000
B33 B 1 0.16320 0.39920 0.16320 1.0000
B34 B 1 0.83680 0.60080 0.83680 1.0000
B35 B 1 0.16320 0.60080 0.83680 1.0000
B36 B 1 0.83680 0.39920 0.16320 1.0000
B37 B 1 0.83680 0.60080 0.16320 1.0000
B38 B 1 0.16320 0.39920 0.83680 1.0000
B39 B 1 0.83680 0.39920 0.83680 1.0000
B40 B 1 0.16320 0.60080 0.16320 1.0000
B41 B 1 0.16320 0.16320 0.39920 1.0000
B42 B 1 0.83680 0.83680 0.60080 1.0000
B43 B 1 0.83680 0.16320 0.60080 1.0000
B44 B 1 0.16320 0.83680 0.39920 1.0000
B45 B 1 0.16320 0.83680 0.60080 1.0000
B46 B 1 0.83680 0.16320 0.39920 1.0000
B47 B 1 0.83680 0.83680 0.39920 1.0000
B48 B 1 0.16320 0.16320 0.60080 1.0000
B49 B 1 0.32520 0.13120 0.32520 1.0000
B50 B 1 0.67480 0.86880 0.67480 1.0000
B51 B 1 0.67480 0.86880 0.32520 1.0000
B52 B 1 0.32520 0.13120 0.67480 1.0000
B53 B 1 0.67480 0.13120 0.67480 1.0000
B54 B 1 0.32520 0.86880 0.32520 1.0000
B55 B 1 0.32520 0.86880 0.67480 1.0000
B56 B 1 0.67480 0.13120 0.32520 1.0000
B57 B 1 0.32520 0.32520 0.13120 1.0000
B58 B 1 0.67480 0.67480 0.86880 1.0000
B59 B 1 0.32520 0.67480 0.86880 1.0000
B60 B 1 0.67480 0.32520 0.13120 1.0000
B61 B 1 0.67480 0.67480 0.13120 1.0000
B62 B 1 0.32520 0.32520 0.86880 1.0000
B63 B 1 0.67480 0.32520 0.86880 1.0000
B64 B 1 0.32520 0.67480 0.13120 1.0000
B65 B 1 0.13120 0.32520 0.32520 1.0000
B66 B 1 0.86880 0.67480 0.67480 1.0000
B67 B 1 0.86880 0.32520 0.67480 1.0000
B68 B 1 0.13120 0.67480 0.32520 1.0000
B69 B 1 0.13120 0.67480 0.67480 1.0000
B70 B 1 0.86880 0.32520 0.32520 1.0000
B71 B 1 0.86880 0.67480 0.32520 1.0000
B72 B 1 0.13120 0.32520 0.67480 1.0000
B73 B 1 0.50000 0.10220 0.27680 1.0000
B74 B 1 0.50000 0.89780 0.72320 1.0000
B75 B 1 0.50000 0.89780 0.27680 1.0000
B76 B 1 0.50000 0.10220 0.72320 1.0000
B77 B 1 0.27680 0.50000 0.10220 1.0000
B78 B 1 0.72320 0.50000 0.89780 1.0000
B79 B 1 0.27680 0.50000 0.89780 1.0000
B80 B 1 0.72320 0.50000 0.10220 1.0000
B81 B 1 0.10220 0.27680 0.50000 1.0000
B82 B 1 0.89780 0.72320 0.50000 1.0000
B83 B 1 0.89780 0.27680 0.50000 1.0000
B84 B 1 0.10220 0.72320 0.50000 1.0000
B85 B 1 0.10220 0.50000 0.72320 1.0000
B86 B 1 0.89780 0.50000 0.27680 1.0000
B87 B 1 0.89780 0.50000 0.72320 1.0000
B88 B 1 0.10220 0.50000 0.27680 1.0000
B89 B 1 0.50000 0.27680 0.89780 1.0000
B90 B 1 0.50000 0.72320 0.10220 1.0000
B91 B 1 0.50000 0.27680 0.10220 1.0000
B92 B 1 0.50000 0.72320 0.89780 1.0000
B93 B 1 0.27680 0.10220 0.50000 1.0000
B94 B 1 0.72320 0.89780 0.50000 1.0000
B95 B 1 0.27680 0.89780 0.50000 1.0000
B96 B 1 0.72320 0.10220 0.50000 1.0000
#End of data_28_VEJZOA

data_29_VEJZUG
_chemical_name_common		'ZIF12Â  '
_chemical_formula_structural	'Co(bIm)2'
_chemical_formula_sum		'Ar1 B2'
_citation_special_details	'original source structure doi: 10.1073/pnas.0602439103'
;
File: VEJZUG.cif.
;
_cell_length_a			9.45887
_cell_length_b			9.45887
_cell_length_c			9.45887
_cell_angle_alpha		90.00000
_cell_angle_beta		90.00000
_cell_angle_gamma		90.00000
_cell_volume			846.28736
_cell_formula_units_Z		48
_symmetry_space_group_name_H-M	'P 1'
_symmetry_Int_Tables_number	1
loop_
_symmetry_equiv_pos_site_id
_symmetry_equiv_pos_as_xyz
1 x,y,z
loop_
_atom_site_label
_atom_site_type_symbol
_atom_site_symmetry_multiplicity
_atom_site_fract_x
_atom_site_fract_y
_atom_site_fract_z
_atom_site_occupancy
Ar1 Ar 1 0.39650 0.10440 0.25150 1.0000
Ar2 Ar 1 0.60350 0.89560 0.74850 1.0000
Ar3 Ar 1 0.60350 0.89560 0.25150 1.0000
Ar4 Ar 1 0.39650 0.10440 0.74850 1.0000
Ar5 Ar 1 0.60350 0.10440 0.74850 1.0000
Ar6 Ar 1 0.39650 0.89560 0.25150 1.0000
Ar7 Ar 1 0.39650 0.89560 0.74850 1.0000
Ar8 Ar 1 0.60350 0.10440 0.25150 1.0000
Ar9 Ar 1 0.25150 0.39650 0.10440 1.0000
Ar10 Ar 1 0.74850 0.60350 0.89560 1.0000
Ar11 Ar 1 0.25150 0.60350 0.89560 1.0000
Ar12 Ar 1 0.74850 0.39650 0.10440 1.0000
Ar13 Ar 1 0.74850 0.60350 0.10440 1.0000
Ar14 Ar 1 0.25150 0.39650 0.89560 1.0000
Ar15 Ar 1 0.74850 0.39650 0.89560 1.0000
Ar16 Ar 1 0.25150 0.60350 0.10440 1.0000
Ar17 Ar 1 0.10440 0.25150 0.39650 1.0000
Ar18 Ar 1 0.89560 0.74850 0.60350 1.0000
Ar19 Ar 1 0.89560 0.25150 0.60350 1.0000
Ar20 Ar 1 0.10440 0.74850 0.39650 1.0000
Ar21 Ar 1 0.10440 0.74850 0.60350 1.0000
Ar22 Ar 1 0.89560 0.25150 0.39650 1.0000
Ar23 Ar 1 0.89560 0.74850 0.39650 1.0000
Ar24 Ar 1 0.10440 0.25150 0.60350 1.0000
Ar25 Ar 1 0.10440 0.39650 0.74850 1.0000
Ar26 Ar 1 0.89560 0.60350 0.25150 1.0000
Ar27 Ar 1 0.89560 0.60350 0.74850 1.0000
Ar28 Ar 1 0.10440 0.39650 0.25150 1.0000
Ar29 Ar 1 0.10440 0.60350 0.25150 1.0000
Ar30 Ar 1 0.89560 0.39650 0.74850 1.0000
Ar31 Ar 1 0.89560 0.39650 0.25150 1.0000
Ar32 Ar 1 0.10440 0.60350 0.74850 1.0000
Ar33 Ar 1 0.39650 0.25150 0.89560 1.0000
Ar34 Ar 1 0.60350 0.74850 0.10440 1.0000
Ar35 Ar 1 0.60350 0.25150 0.10440 1.0000
Ar36 Ar 1 0.39650 0.74850 0.89560 1.0000
Ar37 Ar 1 0.60350 0.74850 0.89560 1.0000
Ar38 Ar 1 0.39650 0.25150 0.10440 1.0000
Ar39 Ar 1 0.39650 0.74850 0.10440 1.0000
Ar40 Ar 1 0.60350 0.25150 0.89560 1.0000
Ar41 Ar 1 0.25150 0.10440 0.60350 1.0000
Ar42 Ar 1 0.74850 0.89560 0.39650 1.0000
Ar43 Ar 1 0.25150 0.89560 0.39650 1.0000
Ar44 Ar 1 0.74850 0.10440 0.60350 1.0000
Ar45 Ar 1 0.74850 0.10440 0.39650 1.0000
Ar46 Ar 1 0.25150 0.89560 0.60350 1.0000
Ar47 Ar 1 0.74850 0.89560 0.60350 1.0000
Ar48 Ar 1 0.25150 0.10440 0.39650 1.0000
B1 B 1 0.37670 0.00000 0.24270 1.0000
B2 B 1 0.62330 0.00000 0.75730 1.0000
B3 B 1 0.62330 0.00000 0.24270 1.0000
B4 B 1 0.37670 0.00000 0.75730 1.0000
B5 B 1 0.24270 0.37670 0.00000 1.0000
B6 B 1 0.75730 0.62330 0.00000 1.0000
B7 B 1 0.24270 0.62330 0.00000 1.0000
B8 B 1 0.75730 0.37670 0.00000 1.0000
B9 B 1 0.00000 0.24270 0.37670 1.0000
B10 B 1 0.00000 0.75730 0.62330 1.0000
B11 B 1 0.00000 0.24270 0.62330 1.0000
B12 B 1 0.00000 0.75730 0.37670 1.0000
B13 B 1 0.00000 0.37670 0.75730 1.0000
B14 B 1 0.00000 0.62330 0.24270 1.0000
B15 B 1 0.00000 0.62330 0.75730 1.0000
B16 B 1 0.00000 0.37670 0.24270 1.0000
B17 B 1 0.37670 0.24270 0.00000 1.0000
B18 B 1 0.62330 0.75730 0.00000 1.0000
B19 B 1 0.62330 0.24270 0.00000 1.0000
B20 B 1 0.37670 0.75730 0.00000 1.0000
B21 B 1 0.24270 0.00000 0.62330 1.0000
B22 B 1 0.75730 0.00000 0.37670 1.0000
B23 B 1 0.24270 0.00000 0.37670 1.0000
B24 B 1 0.75730 0.00000 0.62330 1.0000
B25 B 1 0.39860 0.16210 0.16210 1.0000
B26 B 1 0.60140 0.83790 0.83790 1.0000
B27 B 1 0.60140 0.83790 0.16210 1.0000
B28 B 1 0.39860 0.16210 0.83790 1.0000
B29 B 1 0.60140 0.16210 0.83790 1.0000
B30 B 1 0.39860 0.83790 0.16210 1.0000
B31 B 1 0.39860 0.83790 0.83790 1.0000
B32 B 1 0.60140 0.16210 0.16210 1.0000
B33 B 1 0.16210 0.39860 0.16210 1.0000
B34 B 1 0.83790 0.60140 0.83790 1.0000
B35 B 1 0.16210 0.60140 0.83790 1.0000
B36 B 1 0.83790 0.39860 0.16210 1.0000
B37 B 1 0.83790 0.60140 0.16210 1.0000
B38 B 1 0.16210 0.39860 0.83790 1.0000
B39 B 1 0.83790 0.39860 0.83790 1.0000
B40 B 1 0.16210 0.60140 0.16210 1.0000
B41 B 1 0.16210 0.16210 0.39860 1.0000
B42 B 1 0.83790 0.83790 0.60140 1.0000
B43 B 1 0.83790 0.16210 0.60140 1.0000
B44 B 1 0.16210 0.83790 0.39860 1.0000
B45 B 1 0.16210 0.83790 0.60140 1.0000
B46 B 1 0.83790 0.16210 0.39860 1.0000
B47 B 1 0.83790 0.83790 0.39860 1.0000
B48 B 1 0.16210 0.16210 0.60140 1.0000
B49 B 1 0.32540 0.13010 0.32540 1.0000
B50 B 1 0.67460 0.86990 0.67460 1.0000
B51 B 1 0.67460 0.86990 0.32540 1.0000
B52 B 1 0.32540 0.13010 0.67460 1.0000
B53 B 1 0.67460 0.13010 0.67460 1.0000
B54 B 1 0.32540 0.86990 0.32540 1.0000
B55 B 1 0.32540 0.86990 0.67460 1.0000
B56 B 1 0.67460 0.13010 0.32540 1.0000
B57 B 1 0.32540 0.32540 0.13010 1.0000
B58 B 1 0.67460 0.67460 0.86990 1.0000
B59 B 1 0.32540 0.67460 0.86990 1.0000
B60 B 1 0.67460 0.32540 0.13010 1.0000
B61 B 1 0.67460 0.67460 0.13010 1.0000
B62 B 1 0.32540 0.32540 0.86990 1.0000
B63 B 1 0.67460 0.32540 0.86990 1.0000
B64 B 1 0.32540 0.67460 0.13010 1.0000
B65 B 1 0.13010 0.32540 0.32540 1.0000
B66 B 1 0.86990 0.67460 0.67460 1.0000
B67 B 1 0.86990 0.32540 0.67460 1.0000
B68 B 1 0.13010 0.67460 0.32540 1.0000
B69 B 1 0.13010 0.67460 0.67460 1.0000
B70 B 1 0.86990 0.32540 0.32540 1.0000
B71 B 1 0.86990 0.67460 0.32540 1.0000
B72 B 1 0.13010 0.32540 0.67460 1.0000
B73 B 1 0.50000 0.10060 0.27680 1.0000
B74 B 1 0.50000 0.89940 0.72320 1.0000
B75 B 1 0.50000 0.89940 0.27680 1.0000
B76 B 1 0.50000 0.10060 0.72320 1.0000
B77 B 1 0.27680 0.50000 0.10060 1.0000
B78 B 1 0.72320 0.50000 0.89940 1.0000
B79 B 1 0.27680 0.50000 0.89940 1.0000
B80 B 1 0.72320 0.50000 0.10060 1.0000
B81 B 1 0.10060 0.27680 0.50000 1.0000
B82 B 1 0.89940 0.72320 0.50000 1.0000
B83 B 1 0.89940 0.27680 0.50000 1.0000
B84 B 1 0.10060 0.72320 0.50000 1.0000
B85 B 1 0.10060 0.50000 0.72320 1.0000
B86 B 1 0.89940 0.50000 0.27680 1.0000
B87 B 1 0.89940 0.50000 0.72320 1.0000
B88 B 1 0.10060 0.50000 0.27680 1.0000
B89 B 1 0.50000 0.27680 0.89940 1.0000
B90 B 1 0.50000 0.72320 0.10060 1.0000
B91 B 1 0.50000 0.27680 0.10060 1.0000
B92 B 1 0.50000 0.72320 0.89940 1.0000
B93 B 1 0.27680 0.10060 0.50000 1.0000
B94 B 1 0.72320 0.89940 0.50000 1.0000
B95 B 1 0.27680 0.89940 0.50000 1.0000
B96 B 1 0.72320 0.10060 0.50000 1.0000
#End of data_29_VEJZUG

data_30_YOZBUL
_chemical_name_common		'ZIF80Â  '
_chemical_formula_structural	'Zn(dcIm)(nIm)'
_chemical_formula_sum		'Ar1 B2'
_citation_special_details	'original source structure doi: 10.1021/ja809459e'
;
File: YOZBUL.cif.
;
_cell_length_a			8.55638
_cell_length_b			8.55638
_cell_length_c			6.29719
_cell_angle_alpha		90.00000
_cell_angle_beta		90.00000
_cell_angle_gamma		120.00000
_cell_volume			399.26162
_cell_formula_units_Z		24
_symmetry_space_group_name_H-M	'P 1'
_symmetry_Int_Tables_number	1
loop_
_symmetry_equiv_pos_site_id
_symmetry_equiv_pos_as_xyz
1 x,y,z
loop_
_atom_site_label
_atom_site_type_symbol
_atom_site_symmetry_multiplicity
_atom_site_fract_x
_atom_site_fract_y
_atom_site_fract_z
_atom_site_occupancy
Ar1 Ar 1 0.89586 0.33205 0.40570 1.0000
Ar2 Ar 1 0.10414 0.66795 0.59430 1.0000
Ar3 Ar 1 0.66795 0.56381 0.40570 1.0000
Ar4 Ar 1 0.33205 0.43619 0.59430 1.0000
Ar5 Ar 1 0.43619 0.10414 0.40570 1.0000
Ar6 Ar 1 0.56381 0.89586 0.59430 1.0000
Ar7 Ar 1 0.10414 0.66795 0.90570 1.0000
Ar8 Ar 1 0.89586 0.33205 0.09430 1.0000
Ar9 Ar 1 0.33205 0.43619 0.90570 1.0000
Ar10 Ar 1 0.66795 0.56381 0.09430 1.0000
Ar11 Ar 1 0.56381 0.89586 0.90570 1.0000
Ar12 Ar 1 0.43619 0.10414 0.09430 1.0000
Ar13 Ar 1 0.33205 0.89586 0.59430 1.0000
Ar14 Ar 1 0.66795 0.10414 0.40570 1.0000
Ar15 Ar 1 0.56381 0.66795 0.59430 1.0000
Ar16 Ar 1 0.43619 0.33205 0.40570 1.0000
Ar17 Ar 1 0.10414 0.43619 0.59430 1.0000
Ar18 Ar 1 0.89586 0.56381 0.40570 1.0000
Ar19 Ar 1 0.66795 0.10414 0.09430 1.0000
Ar20 Ar 1 0.33205 0.89586 0.90570 1.0000
Ar21 Ar 1 0.43619 0.33205 0.09430 1.0000
Ar22 Ar 1 0.56381 0.66795 0.90570 1.0000
Ar23 Ar 1 0.89586 0.56381 0.09430 1.0000
Ar24 Ar 1 0.10414 0.43619 0.90570 1.0000
B1 B 1 0.88680 0.44340 0.43230 1.0000
B2 B 1 0.11320 0.55660 0.56770 1.0000
B3 B 1 0.55660 0.44340 0.43230 1.0000
B4 B 1 0.44340 0.55660 0.56770 1.0000
B5 B 1 0.55660 0.11320 0.43230 1.0000
B6 B 1 0.44340 0.88680 0.56770 1.0000
B7 B 1 0.11320 0.55660 0.93230 1.0000
B8 B 1 0.88680 0.44340 0.06770 1.0000
B9 B 1 0.44340 0.55660 0.93230 1.0000
B10 B 1 0.55660 0.44340 0.06770 1.0000
B11 B 1 0.44340 0.88680 0.93230 1.0000
B12 B 1 0.55660 0.11320 0.06770 1.0000
B13 B 1 0.78350 0.21650 0.44370 1.0000
B14 B 1 0.21650 0.78350 0.55630 1.0000
B15 B 1 0.78350 0.56700 0.44370 1.0000
B16 B 1 0.21650 0.43300 0.55630 1.0000
B17 B 1 0.43300 0.21650 0.44370 1.0000
B18 B 1 0.56700 0.78350 0.55630 1.0000
B19 B 1 0.21650 0.78350 0.94370 1.0000
B20 B 1 0.78350 0.21650 0.05630 1.0000
B21 B 1 0.21650 0.43300 0.94370 1.0000
B22 B 1 0.78350 0.56700 0.05630 1.0000
B23 B 1 0.56700 0.78350 0.94370 1.0000
B24 B 1 0.43300 0.21650 0.05630 1.0000
B25 B 1 0.00000 0.35750 0.50000 1.0000
B26 B 1 0.00000 0.64250 0.50000 1.0000
B27 B 1 0.64250 0.64250 0.50000 1.0000
B28 B 1 0.35750 0.35750 0.50000 1.0000
B29 B 1 0.35750 1.00000 0.50000 1.0000
B30 B 1 0.64250 1.00000 0.50000 1.0000
B31 B 1 0.00000 0.64250 0.00000 1.0000
B32 B 1 0.00000 0.35750 0.00000 1.0000
B33 B 1 0.35750 0.35750 0.00000 1.0000
B34 B 1 0.64250 0.64250 0.00000 1.0000
B35 B 1 0.64250 1.00000 0.00000 1.0000
B36 B 1 0.35750 1.00000 0.00000 1.0000
B37 B 1 0.91667 0.32510 0.25000 1.0000
B38 B 1 0.08333 0.67490 0.75000 1.0000
B39 B 1 0.67490 0.59157 0.25000 1.0000
B40 B 1 0.32510 0.40843 0.75000 1.0000
B41 B 1 0.40843 0.08333 0.25000 1.0000
B42 B 1 0.59157 0.91667 0.75000 1.0000
B43 B 1 0.32510 0.91667 0.75000 1.0000
B44 B 1 0.67490 0.08333 0.25000 1.0000
B45 B 1 0.59157 0.67490 0.75000 1.0000
B46 B 1 0.40843 0.32510 0.25000 1.0000
B47 B 1 0.08333 0.40843 0.75000 1.0000
B48 B 1 0.91667 0.59157 0.25000 1.0000
#End of data_30_YOZBUL

data_31_GITVIP
_chemical_name_common		'ZIF71 '
_chemical_formula_structural	'Zn(dcIm)2'
_chemical_formula_sum		'Ar1 B2'
_citation_special_details	'original source structure doi: 10.1126/science.1152516'
;
File: GITVIP.cif.
;
_cell_length_a			9.46115
_cell_length_b			9.46115
_cell_length_c			9.46115
_cell_angle_alpha		90.00000
_cell_angle_beta		90.00000
_cell_angle_gamma		90.00000
_cell_volume			846.89844
_cell_formula_units_Z		48
_symmetry_space_group_name_H-M	'P 1'
_symmetry_Int_Tables_number	1
loop_
_symmetry_equiv_pos_site_id
_symmetry_equiv_pos_as_xyz
1 x,y,z
loop_
_atom_site_label
_atom_site_type_symbol
_atom_site_symmetry_multiplicity
_atom_site_fract_x
_atom_site_fract_y
_atom_site_fract_z
_atom_site_occupancy
Ar1 Ar 1 0.39539 0.10407 0.25185 1.0000
Ar2 Ar 1 0.60461 0.89593 0.74815 1.0000
Ar3 Ar 1 0.60461 0.89593 0.25185 1.0000
Ar4 Ar 1 0.39539 0.10407 0.74815 1.0000
Ar5 Ar 1 0.60461 0.10407 0.74815 1.0000
Ar6 Ar 1 0.39539 0.89593 0.25185 1.0000
Ar7 Ar 1 0.39539 0.89593 0.74815 1.0000
Ar8 Ar 1 0.60461 0.10407 0.25185 1.0000
Ar9 Ar 1 0.25185 0.39539 0.10407 1.0000
Ar10 Ar 1 0.74815 0.60461 0.89593 1.0000
Ar11 Ar 1 0.25185 0.60461 0.89593 1.0000
Ar12 Ar 1 0.74815 0.39539 0.10407 1.0000
Ar13 Ar 1 0.74815 0.60461 0.10407 1.0000
Ar14 Ar 1 0.25185 0.39539 0.89593 1.0000
Ar15 Ar 1 0.74815 0.39539 0.89593 1.0000
Ar16 Ar 1 0.25185 0.60461 0.10407 1.0000
Ar17 Ar 1 0.10407 0.25185 0.39539 1.0000
Ar18 Ar 1 0.89593 0.74815 0.60461 1.0000
Ar19 Ar 1 0.89593 0.25185 0.60461 1.0000
Ar20 Ar 1 0.10407 0.74815 0.39539 1.0000
Ar21 Ar 1 0.10407 0.74815 0.60461 1.0000
Ar22 Ar 1 0.89593 0.25185 0.39539 1.0000
Ar23 Ar 1 0.89593 0.74815 0.39539 1.0000
Ar24 Ar 1 0.10407 0.25185 0.60461 1.0000
Ar25 Ar 1 0.10407 0.39539 0.74815 1.0000
Ar26 Ar 1 0.89593 0.60461 0.25185 1.0000
Ar27 Ar 1 0.89593 0.60461 0.74815 1.0000
Ar28 Ar 1 0.10407 0.39539 0.25185 1.0000
Ar29 Ar 1 0.10407 0.60461 0.25185 1.0000
Ar30 Ar 1 0.89593 0.39539 0.74815 1.0000
Ar31 Ar 1 0.89593 0.39539 0.25185 1.0000
Ar32 Ar 1 0.10407 0.60461 0.74815 1.0000
Ar33 Ar 1 0.39539 0.25185 0.89593 1.0000
Ar34 Ar 1 0.60461 0.74815 0.10407 1.0000
Ar35 Ar 1 0.60461 0.25185 0.10407 1.0000
Ar36 Ar 1 0.39539 0.74815 0.89593 1.0000
Ar37 Ar 1 0.60461 0.74815 0.89593 1.0000
Ar38 Ar 1 0.39539 0.25185 0.10407 1.0000
Ar39 Ar 1 0.39539 0.74815 0.10407 1.0000
Ar40 Ar 1 0.60461 0.25185 0.89593 1.0000
Ar41 Ar 1 0.25185 0.10407 0.60461 1.0000
Ar42 Ar 1 0.74815 0.89593 0.39539 1.0000
Ar43 Ar 1 0.25185 0.89593 0.39539 1.0000
Ar44 Ar 1 0.74815 0.10407 0.60461 1.0000
Ar45 Ar 1 0.74815 0.10407 0.39539 1.0000
Ar46 Ar 1 0.25185 0.89593 0.60461 1.0000
Ar47 Ar 1 0.74815 0.89593 0.60461 1.0000
Ar48 Ar 1 0.25185 0.10407 0.39539 1.0000
B1 B 1 0.37140 1.00000 0.24390 1.0000
B2 B 1 0.62860 1.00000 0.75610 1.0000
B3 B 1 0.62860 1.00000 0.24390 1.0000
B4 B 1 0.37140 1.00000 0.75610 1.0000
B5 B 1 0.24390 0.37140 1.00000 1.0000
B6 B 1 0.75610 0.62860 1.00000 1.0000
B7 B 1 0.24390 0.62860 1.00000 1.0000
B8 B 1 0.75610 0.37140 1.00000 1.0000
B9 B 1 1.00000 0.24390 0.37140 1.0000
B10 B 1 1.00000 0.75610 0.62860 1.0000
B11 B 1 1.00000 0.24390 0.62860 1.0000
B12 B 1 1.00000 0.75610 0.37140 1.0000
B13 B 1 1.00000 0.37140 0.75610 1.0000
B14 B 1 1.00000 0.62860 0.24390 1.0000
B15 B 1 1.00000 0.62860 0.75610 1.0000
B16 B 1 1.00000 0.37140 0.24390 1.0000
B17 B 1 0.37140 0.24390 1.00000 1.0000
B18 B 1 0.62860 0.75610 1.00000 1.0000
B19 B 1 0.62860 0.24390 1.00000 1.0000
B20 B 1 0.37140 0.75610 1.00000 1.0000
B21 B 1 0.24390 1.00000 0.62860 1.0000
B22 B 1 0.75610 1.00000 0.37140 1.0000
B23 B 1 0.24390 1.00000 0.37140 1.0000
B24 B 1 0.75610 1.00000 0.62860 1.0000
B25 B 1 0.50000 0.10010 0.27300 1.0000
B26 B 1 0.50000 0.89990 0.72700 1.0000
B27 B 1 0.50000 0.89990 0.27300 1.0000
B28 B 1 0.50000 0.10010 0.72700 1.0000
B29 B 1 0.27300 0.50000 0.10010 1.0000
B30 B 1 0.72700 0.50000 0.89990 1.0000
B31 B 1 0.27300 0.50000 0.89990 1.0000
B32 B 1 0.72700 0.50000 0.10010 1.0000
B33 B 1 0.10010 0.27300 0.50000 1.0000
B34 B 1 0.89990 0.72700 0.50000 1.0000
B35 B 1 0.89990 0.27300 0.50000 1.0000
B36 B 1 0.10010 0.72700 0.50000 1.0000
B37 B 1 0.10010 0.50000 0.72700 1.0000
B38 B 1 0.89990 0.50000 0.27300 1.0000
B39 B 1 0.89990 0.50000 0.72700 1.0000
B40 B 1 0.10010 0.50000 0.27300 1.0000
B41 B 1 0.50000 0.27300 0.89990 1.0000
B42 B 1 0.50000 0.72700 0.10010 1.0000
B43 B 1 0.50000 0.27300 0.10010 1.0000
B44 B 1 0.50000 0.72700 0.89990 1.0000
B45 B 1 0.27300 0.10010 0.50000 1.0000
B46 B 1 0.72700 0.89990 0.50000 1.0000
B47 B 1 0.27300 0.89990 0.50000 1.0000
B48 B 1 0.72700 0.10010 0.50000 1.0000
B49 B 1 0.32495 0.13350 0.32495 1.0000
B50 B 1 0.67505 0.86650 0.67505 1.0000
B51 B 1 0.67505 0.86650 0.32495 1.0000
B52 B 1 0.32495 0.13350 0.67505 1.0000
B53 B 1 0.67505 0.13350 0.67505 1.0000
B54 B 1 0.32495 0.86650 0.32495 1.0000
B55 B 1 0.32495 0.86650 0.67505 1.0000
B56 B 1 0.67505 0.13350 0.32495 1.0000
B57 B 1 0.32495 0.32495 0.13350 1.0000
B58 B 1 0.67505 0.67505 0.86650 1.0000
B59 B 1 0.32495 0.67505 0.86650 1.0000
B60 B 1 0.67505 0.32495 0.13350 1.0000
B61 B 1 0.67505 0.67505 0.13350 1.0000
B62 B 1 0.32495 0.32495 0.86650 1.0000
B63 B 1 0.67505 0.32495 0.86650 1.0000
B64 B 1 0.32495 0.67505 0.13350 1.0000
B65 B 1 0.13350 0.32495 0.32495 1.0000
B66 B 1 0.86650 0.67505 0.67505 1.0000
B67 B 1 0.86650 0.32495 0.67505 1.0000
B68 B 1 0.13350 0.67505 0.32495 1.0000
B69 B 1 0.13350 0.67505 0.67505 1.0000
B70 B 1 0.86650 0.32495 0.32495 1.0000
B71 B 1 0.86650 0.67505 0.32495 1.0000
B72 B 1 0.13350 0.32495 0.67505 1.0000
B73 B 1 0.40150 0.16275 0.16275 1.0000
B74 B 1 0.59850 0.83725 0.83725 1.0000
B75 B 1 0.59850 0.83725 0.16275 1.0000
B76 B 1 0.40150 0.16275 0.83725 1.0000
B77 B 1 0.59850 0.16275 0.83725 1.0000
B78 B 1 0.40150 0.83725 0.16275 1.0000
B79 B 1 0.40150 0.83725 0.83725 1.0000
B80 B 1 0.59850 0.16275 0.16275 1.0000
B81 B 1 0.16275 0.40150 0.16275 1.0000
B82 B 1 0.83725 0.59850 0.83725 1.0000
B83 B 1 0.16275 0.59850 0.83725 1.0000
B84 B 1 0.83725 0.40150 0.16275 1.0000
B85 B 1 0.83725 0.59850 0.16275 1.0000
B86 B 1 0.16275 0.40150 0.83725 1.0000
B87 B 1 0.83725 0.40150 0.83725 1.0000
B88 B 1 0.16275 0.59850 0.16275 1.0000
B89 B 1 0.16275 0.16275 0.40150 1.0000
B90 B 1 0.83725 0.83725 0.59850 1.0000
B91 B 1 0.83725 0.16275 0.59850 1.0000
B92 B 1 0.16275 0.83725 0.40150 1.0000
B93 B 1 0.16275 0.83725 0.59850 1.0000
B94 B 1 0.83725 0.16275 0.40150 1.0000
B95 B 1 0.83725 0.83725 0.40150 1.0000
B96 B 1 0.16275 0.16275 0.59850 1.0000
#End of data_31_GITVIP

data_32_GITTUZ
_chemical_name_common		'ZIF68Â  '
_chemical_formula_structural	'Zn(bIm)(nIm)'
_chemical_formula_sum		'Ar1 B2'
_citation_special_details	'original source structure doi: 10.1126/science.1152516'
;
File: GITTUZ.cif.
;
_cell_length_a			8.72747
_cell_length_b			8.72747
_cell_length_c			6.05672
_cell_angle_alpha		90.00000
_cell_angle_beta		90.00000
_cell_angle_gamma		120.00000
_cell_volume			399.52519
_cell_formula_units_Z		24
_symmetry_space_group_name_H-M	'P 1'
_symmetry_Int_Tables_number	1
loop_
_symmetry_equiv_pos_site_id
_symmetry_equiv_pos_as_xyz
1 x,y,z
loop_
_atom_site_label
_atom_site_type_symbol
_atom_site_symmetry_multiplicity
_atom_site_fract_x
_atom_site_fract_y
_atom_site_fract_z
_atom_site_occupancy
Ar1 Ar 1 0.10823 0.44000 0.58718 1.0000
Ar2 Ar 1 0.89177 0.56000 0.41282 1.0000
Ar3 Ar 1 0.56000 0.66823 0.58718 1.0000
Ar4 Ar 1 0.44000 0.33177 0.41282 1.0000
Ar5 Ar 1 0.33177 0.89177 0.58718 1.0000
Ar6 Ar 1 0.66823 0.10823 0.41282 1.0000
Ar7 Ar 1 0.89177 0.56000 0.08718 1.0000
Ar8 Ar 1 0.10823 0.44000 0.91282 1.0000
Ar9 Ar 1 0.44000 0.33177 0.08718 1.0000
Ar10 Ar 1 0.56000 0.66823 0.91282 1.0000
Ar11 Ar 1 0.66823 0.10823 0.08718 1.0000
Ar12 Ar 1 0.33177 0.89177 0.91282 1.0000
Ar13 Ar 1 0.44000 0.10823 0.41282 1.0000
Ar14 Ar 1 0.56000 0.89177 0.58718 1.0000
Ar15 Ar 1 0.66823 0.56000 0.41282 1.0000
Ar16 Ar 1 0.33177 0.44000 0.58718 1.0000
Ar17 Ar 1 0.89177 0.33177 0.41282 1.0000
Ar18 Ar 1 0.10823 0.66823 0.58718 1.0000
Ar19 Ar 1 0.56000 0.89177 0.91282 1.0000
Ar20 Ar 1 0.44000 0.10823 0.08718 1.0000
Ar21 Ar 1 0.33177 0.44000 0.91282 1.0000
Ar22 Ar 1 0.66823 0.56000 0.08718 1.0000
Ar23 Ar 1 0.10823 0.66823 0.91282 1.0000
Ar24 Ar 1 0.89177 0.33177 0.08718 1.0000
B1 B 1 0.12140 0.56070 0.55290 1.0000
B2 B 1 0.87860 0.43930 0.44710 1.0000
B3 B 1 0.43930 0.56070 0.55290 1.0000
B4 B 1 0.56070 0.43930 0.44710 1.0000
B5 B 1 0.43930 0.87860 0.55290 1.0000
B6 B 1 0.56070 0.12140 0.44710 1.0000
B7 B 1 0.87860 0.43930 0.05290 1.0000
B8 B 1 0.12140 0.56070 0.94710 1.0000
B9 B 1 0.56070 0.43930 0.05290 1.0000
B10 B 1 0.43930 0.56070 0.94710 1.0000
B11 B 1 0.56070 0.12140 0.05290 1.0000
B12 B 1 0.43930 0.87860 0.94710 1.0000
B13 B 1 0.09580 0.41500 0.75000 1.0000
B14 B 1 0.90420 0.58500 0.25000 1.0000
B15 B 1 0.58500 0.68080 0.75000 1.0000
B16 B 1 0.41500 0.31920 0.25000 1.0000
B17 B 1 0.31920 0.90420 0.75000 1.0000
B18 B 1 0.68080 0.09580 0.25000 1.0000
B19 B 1 0.41500 0.09580 0.25000 1.0000
B20 B 1 0.58500 0.90420 0.75000 1.0000
B21 B 1 0.68080 0.58500 0.25000 1.0000
B22 B 1 0.31920 0.41500 0.75000 1.0000
B23 B 1 0.90420 0.31920 0.25000 1.0000
B24 B 1 0.09580 0.68080 0.75000 1.0000
B25 B 1 0.21830 0.43660 0.54950 1.0000
B26 B 1 0.78170 0.56340 0.45050 1.0000
B27 B 1 0.56340 0.78170 0.54950 1.0000
B28 B 1 0.43660 0.21830 0.45050 1.0000
B29 B 1 0.21830 0.78170 0.54950 1.0000
B30 B 1 0.78170 0.21830 0.45050 1.0000
B31 B 1 0.78170 0.56340 0.04950 1.0000
B32 B 1 0.21830 0.43660 0.95050 1.0000
B33 B 1 0.43660 0.21830 0.04950 1.0000
B34 B 1 0.56340 0.78170 0.95050 1.0000
B35 B 1 0.78170 0.21830 0.04950 1.0000
B36 B 1 0.21830 0.78170 0.95050 1.0000
B37 B 1 0.00000 0.35975 0.50000 1.0000
B38 B 1 1.00000 0.64025 0.50000 1.0000
B39 B 1 0.64025 0.64025 0.50000 1.0000
B40 B 1 0.35975 0.35975 0.50000 1.0000
B41 B 1 0.35975 0.00000 0.50000 1.0000
B42 B 1 0.64025 0.00000 0.50000 1.0000
B43 B 1 1.00000 0.64025 1.00000 1.0000
B44 B 1 0.00000 0.35975 1.00000 1.0000
B45 B 1 0.35975 0.35975 1.00000 1.0000
B46 B 1 0.64025 0.64025 1.00000 1.0000
B47 B 1 0.64025 0.00000 1.00000 1.0000
B48 B 1 0.35975 0.00000 1.00000 1.0000
#End of data_32_GITTUZ

data_33_EQOBUH
_chemical_formula_structural	'Co(Im)2'
_chemical_formula_sum		'Ar1 B2'
_citation_special_details	'original source structure doi: 10.1002/chem.200304957'
;
File: EQOBUH.cif.
;
_cell_length_a			6.08820
_cell_length_b			8.01368
_cell_length_c			3.05643
_cell_angle_alpha		90.00000
_cell_angle_beta		90.00000
_cell_angle_gamma		90.00000
_cell_volume			149.12014
_cell_formula_units_Z		16
_symmetry_space_group_name_H-M	'P 1'
_symmetry_Int_Tables_number	1
loop_
_symmetry_equiv_pos_site_id
_symmetry_equiv_pos_as_xyz
1 x,y,z
loop_
_atom_site_label
_atom_site_type_symbol
_atom_site_symmetry_multiplicity
_atom_site_fract_x
_atom_site_fract_y
_atom_site_fract_z
_atom_site_occupancy
Ar1 Ar 1 0.20621 0.93492 0.77331 1.0000
Ar2 Ar 1 0.79379 0.06508 0.77331 1.0000
Ar3 Ar 1 0.45621 0.31508 0.02331 1.0000
Ar4 Ar 1 0.04379 0.18492 0.02331 1.0000
Ar5 Ar 1 0.20621 0.43492 0.27331 1.0000
Ar6 Ar 1 0.79379 0.56508 0.27331 1.0000
Ar7 Ar 1 0.45621 0.81508 0.52331 1.0000
Ar8 Ar 1 0.04379 0.68492 0.52331 1.0000
Ar9 Ar 1 0.70621 0.93492 0.27331 1.0000
Ar10 Ar 1 0.29379 0.06508 0.27331 1.0000
Ar11 Ar 1 0.95621 0.31508 0.52331 1.0000
Ar12 Ar 1 0.54379 0.18492 0.52331 1.0000
Ar13 Ar 1 0.70621 0.43492 0.77331 1.0000
Ar14 Ar 1 0.29379 0.56508 0.77331 1.0000
Ar15 Ar 1 0.95621 0.81508 0.02331 1.0000
Ar16 Ar 1 0.54379 0.68492 0.02331 1.0000
B1 B 1 0.30765 0.85838 0.60915 1.0000
B2 B 1 0.69235 0.14162 0.60915 1.0000
B3 B 1 0.55765 0.39161 0.85915 1.0000
B4 B 1 0.94235 0.10839 0.85915 1.0000
B5 B 1 0.30765 0.35839 0.10915 1.0000
B6 B 1 0.69235 0.64162 0.10915 1.0000
B7 B 1 0.55765 0.89161 0.35915 1.0000
B8 B 1 0.94235 0.60838 0.35915 1.0000
B9 B 1 0.80765 0.85838 0.10915 1.0000
B10 B 1 0.19235 0.14162 0.10915 1.0000
B11 B 1 0.05765 0.39161 0.35915 1.0000
B12 B 1 0.44235 0.10839 0.35915 1.0000
B13 B 1 0.80765 0.35839 0.60915 1.0000
B14 B 1 0.19235 0.64162 0.60915 1.0000
B15 B 1 0.05765 0.89161 0.85915 1.0000
B16 B 1 0.44235 0.60838 0.85915 1.0000
B17 B 1 0.27020 0.97225 0.05830 1.0000
B18 B 1 0.72980 0.02775 0.05830 1.0000
B19 B 1 0.52020 0.27775 0.30830 1.0000
B20 B 1 0.97980 0.22225 0.30830 1.0000
B21 B 1 0.27020 0.47225 0.55830 1.0000
B22 B 1 0.72980 0.52775 0.55830 1.0000
B23 B 1 0.52020 0.77775 0.80830 1.0000
B24 B 1 0.97980 0.72225 0.80830 1.0000
B25 B 1 0.77020 0.97225 0.55830 1.0000
B26 B 1 0.22980 0.02775 0.55830 1.0000
B27 B 1 0.02020 0.27775 0.80830 1.0000
B28 B 1 0.47980 0.22225 0.80830 1.0000
B29 B 1 0.77020 0.47225 0.05830 1.0000
B30 B 1 0.22980 0.52775 0.05830 1.0000
B31 B 1 0.02020 0.77775 0.30830 1.0000
B32 B 1 0.47980 0.72225 0.30830 1.0000
#End of data_33_EQOBUH

data_34_YOZBOF
_chemical_name_common		'ZIF79Â  '
_chemical_formula_structural	'Zn(mbIm)(nIm)'
_chemical_formula_sum		'Ar1 B2'
_citation_special_details	'original source structure doi: 10.1021/ja809459e'
;
File: YOZBOF.cif.
;
_cell_length_a			8.45931
_cell_length_b			8.45931
_cell_length_c			6.49381
_cell_angle_alpha		90.00000
_cell_angle_beta		90.00000
_cell_angle_gamma		120.00000
_cell_volume			402.43913
_cell_formula_units_Z		24
_symmetry_space_group_name_H-M	'P 1'
_symmetry_Int_Tables_number	1
loop_
_symmetry_equiv_pos_site_id
_symmetry_equiv_pos_as_xyz
1 x,y,z
loop_
_atom_site_label
_atom_site_type_symbol
_atom_site_symmetry_multiplicity
_atom_site_fract_x
_atom_site_fract_y
_atom_site_fract_z
_atom_site_occupancy
Ar1 Ar 1 0.10032 0.43191 0.40215 1.0000
Ar2 Ar 1 0.89968 0.56809 0.59785 1.0000
Ar3 Ar 1 0.56809 0.66841 0.40215 1.0000
Ar4 Ar 1 0.43191 0.33159 0.59785 1.0000
Ar5 Ar 1 0.33159 0.89968 0.40215 1.0000
Ar6 Ar 1 0.66841 0.10032 0.59785 1.0000
Ar7 Ar 1 0.89968 0.56809 0.90215 1.0000
Ar8 Ar 1 0.10032 0.43191 0.09785 1.0000
Ar9 Ar 1 0.43191 0.33159 0.90215 1.0000
Ar10 Ar 1 0.56809 0.66841 0.09785 1.0000
Ar11 Ar 1 0.66841 0.10032 0.90215 1.0000
Ar12 Ar 1 0.33159 0.89968 0.09785 1.0000
Ar13 Ar 1 0.43191 0.10032 0.59785 1.0000
Ar14 Ar 1 0.56809 0.89968 0.40215 1.0000
Ar15 Ar 1 0.66841 0.56809 0.59785 1.0000
Ar16 Ar 1 0.33159 0.43191 0.40215 1.0000
Ar17 Ar 1 0.89968 0.33159 0.59785 1.0000
Ar18 Ar 1 0.10032 0.66841 0.40215 1.0000
Ar19 Ar 1 0.56809 0.89968 0.09785 1.0000
Ar20 Ar 1 0.43191 0.10032 0.90215 1.0000
Ar21 Ar 1 0.33159 0.43191 0.09785 1.0000
Ar22 Ar 1 0.66841 0.56809 0.90215 1.0000
Ar23 Ar 1 0.10032 0.66841 0.09785 1.0000
Ar24 Ar 1 0.89968 0.33159 0.90215 1.0000
B1 B 1 0.11360 0.55680 0.42420 1.0000
B2 B 1 0.88640 0.44320 0.57580 1.0000
B3 B 1 0.44320 0.55680 0.42420 1.0000
B4 B 1 0.55680 0.44320 0.57580 1.0000
B5 B 1 0.44320 0.88640 0.42420 1.0000
B6 B 1 0.55680 0.11360 0.57580 1.0000
B7 B 1 0.88640 0.44320 0.92420 1.0000
B8 B 1 0.11360 0.55680 0.07580 1.0000
B9 B 1 0.55680 0.44320 0.92420 1.0000
B10 B 1 0.44320 0.55680 0.07580 1.0000
B11 B 1 0.55680 0.11360 0.92420 1.0000
B12 B 1 0.44320 0.88640 0.07580 1.0000
B13 B 1 0.08000 0.40420 0.25000 1.0000
B14 B 1 0.92000 0.59580 0.75000 1.0000
B15 B 1 0.59580 0.67580 0.25000 1.0000
B16 B 1 0.40420 0.32420 0.75000 1.0000
B17 B 1 0.32420 0.92000 0.25000 1.0000
B18 B 1 0.67580 0.08000 0.75000 1.0000
B19 B 1 0.40420 0.08000 0.75000 1.0000
B20 B 1 0.59580 0.92000 0.25000 1.0000
B21 B 1 0.67580 0.59580 0.75000 1.0000
B22 B 1 0.32420 0.40420 0.25000 1.0000
B23 B 1 0.92000 0.32420 0.75000 1.0000
B24 B 1 0.08000 0.67580 0.25000 1.0000
B25 B 1 0.00000 0.35375 0.50000 1.0000
B26 B 1 0.00000 0.64625 0.50000 1.0000
B27 B 1 0.64625 0.64625 0.50000 1.0000
B28 B 1 0.35375 0.35375 0.50000 1.0000
B29 B 1 0.35375 0.00000 0.50000 1.0000
B30 B 1 0.64625 0.00000 0.50000 1.0000
B31 B 1 0.00000 0.64625 0.00000 1.0000
B32 B 1 0.00000 0.35375 0.00000 1.0000
B33 B 1 0.35375 0.35375 0.00000 1.0000
B34 B 1 0.64625 0.64625 0.00000 1.0000
B35 B 1 0.64625 0.00000 0.00000 1.0000
B36 B 1 0.35375 0.00000 0.00000 1.0000
B37 B 1 0.21530 0.43060 0.43590 1.0000
B38 B 1 0.78470 0.56940 0.56410 1.0000
B39 B 1 0.56940 0.78470 0.43590 1.0000
B40 B 1 0.43060 0.21530 0.56410 1.0000
B41 B 1 0.21530 0.78470 0.43590 1.0000
B42 B 1 0.78470 0.21530 0.56410 1.0000
B43 B 1 0.78470 0.56940 0.93590 1.0000
B44 B 1 0.21530 0.43060 0.06410 1.0000
B45 B 1 0.43060 0.21530 0.93590 1.0000
B46 B 1 0.56940 0.78470 0.06410 1.0000
B47 B 1 0.78470 0.21530 0.93590 1.0000
B48 B 1 0.21530 0.78470 0.06410 1.0000
#End of data_34_YOZBOF

data_35_MIHHER
_chemical_name_common		'ZIF21Â  '
_chemical_formula_structural	'Co(pur)2'
_chemical_formula_sum		'Ar1 B2'
_citation_special_details	'original source structure doi: 10.1038/nmat1927'
;
File: MIHHER.cif.
;
_cell_length_a			14.97015
_cell_length_b			14.97015
_cell_length_c			14.97015
_cell_angle_alpha		90.00000
_cell_angle_beta		90.00000
_cell_angle_gamma		90.00000
_cell_volume			3354.89153
_cell_formula_units_Z		192
_symmetry_space_group_name_H-M	'P 1'
_symmetry_Int_Tables_number	1
loop_
_symmetry_equiv_pos_site_id
_symmetry_equiv_pos_as_xyz
1 x,y,z
loop_
_atom_site_label
_atom_site_type_symbol
_atom_site_symmetry_multiplicity
_atom_site_fract_x
_atom_site_fract_y
_atom_site_fract_z
_atom_site_occupancy
Ar1 Ar 1 0.34163 0.24941 0.06564 1.0000
Ar2 Ar 1 0.65837 0.75059 0.93436 1.0000
Ar3 Ar 1 0.65837 0.75059 0.06564 1.0000
Ar4 Ar 1 0.34163 0.24941 0.93436 1.0000
Ar5 Ar 1 0.65837 0.24941 0.93436 1.0000
Ar6 Ar 1 0.34163 0.75059 0.06564 1.0000
Ar7 Ar 1 0.34163 0.75059 0.93436 1.0000
Ar8 Ar 1 0.65837 0.24941 0.06564 1.0000
Ar9 Ar 1 0.06564 0.34163 0.24941 1.0000
Ar10 Ar 1 0.93436 0.65837 0.75059 1.0000
Ar11 Ar 1 0.06564 0.65837 0.75059 1.0000
Ar12 Ar 1 0.93436 0.34163 0.24941 1.0000
Ar13 Ar 1 0.93436 0.65837 0.24941 1.0000
Ar14 Ar 1 0.06564 0.34163 0.75059 1.0000
Ar15 Ar 1 0.93436 0.34163 0.75059 1.0000
Ar16 Ar 1 0.06564 0.65837 0.24941 1.0000
Ar17 Ar 1 0.24941 0.06564 0.34163 1.0000
Ar18 Ar 1 0.75059 0.93436 0.65837 1.0000
Ar19 Ar 1 0.75059 0.06564 0.65837 1.0000
Ar20 Ar 1 0.24941 0.93436 0.34163 1.0000
Ar21 Ar 1 0.24941 0.93436 0.65837 1.0000
Ar22 Ar 1 0.75059 0.06564 0.34163 1.0000
Ar23 Ar 1 0.75059 0.93436 0.34163 1.0000
Ar24 Ar 1 0.24941 0.06564 0.65837 1.0000
Ar25 Ar 1 0.24941 0.34163 0.93436 1.0000
Ar26 Ar 1 0.75059 0.65837 0.06564 1.0000
Ar27 Ar 1 0.75059 0.65837 0.93436 1.0000
Ar28 Ar 1 0.24941 0.34163 0.06564 1.0000
Ar29 Ar 1 0.24941 0.65837 0.06564 1.0000
Ar30 Ar 1 0.75059 0.34163 0.93436 1.0000
Ar31 Ar 1 0.75059 0.34163 0.06564 1.0000
Ar32 Ar 1 0.24941 0.65837 0.93436 1.0000
Ar33 Ar 1 0.34163 0.06564 0.75059 1.0000
Ar34 Ar 1 0.65837 0.93436 0.24941 1.0000
Ar35 Ar 1 0.65837 0.06564 0.24941 1.0000
Ar36 Ar 1 0.34163 0.93436 0.75059 1.0000
Ar37 Ar 1 0.65837 0.93436 0.75059 1.0000
Ar38 Ar 1 0.34163 0.06564 0.24941 1.0000
Ar39 Ar 1 0.34163 0.93436 0.24941 1.0000
Ar40 Ar 1 0.65837 0.06564 0.75059 1.0000
Ar41 Ar 1 0.06564 0.24941 0.65837 1.0000
Ar42 Ar 1 0.93436 0.75059 0.34163 1.0000
Ar43 Ar 1 0.06564 0.75059 0.34163 1.0000
Ar44 Ar 1 0.93436 0.24941 0.65837 1.0000
Ar45 Ar 1 0.93436 0.24941 0.34163 1.0000
Ar46 Ar 1 0.06564 0.75059 0.65837 1.0000
Ar47 Ar 1 0.93436 0.75059 0.65837 1.0000
Ar48 Ar 1 0.06564 0.24941 0.34163 1.0000
Ar49 Ar 1 0.34163 0.74941 0.56564 1.0000
Ar50 Ar 1 0.65837 0.25059 0.43436 1.0000
Ar51 Ar 1 0.65837 0.25059 0.56564 1.0000
Ar52 Ar 1 0.34163 0.74941 0.43436 1.0000
Ar53 Ar 1 0.65837 0.74941 0.43436 1.0000
Ar54 Ar 1 0.34163 0.25059 0.56564 1.0000
Ar55 Ar 1 0.34163 0.25059 0.43436 1.0000
Ar56 Ar 1 0.65837 0.74941 0.56564 1.0000
Ar57 Ar 1 0.06564 0.84163 0.74941 1.0000
Ar58 Ar 1 0.93436 0.15837 0.25059 1.0000
Ar59 Ar 1 0.06564 0.15837 0.25059 1.0000
Ar60 Ar 1 0.93436 0.84163 0.74941 1.0000
Ar61 Ar 1 0.93436 0.15837 0.74941 1.0000
Ar62 Ar 1 0.06564 0.84163 0.25059 1.0000
Ar63 Ar 1 0.93436 0.84163 0.25059 1.0000
Ar64 Ar 1 0.06564 0.15837 0.74941 1.0000
Ar65 Ar 1 0.24941 0.56564 0.84163 1.0000
Ar66 Ar 1 0.75059 0.43436 0.15837 1.0000
Ar67 Ar 1 0.75059 0.56564 0.15837 1.0000
Ar68 Ar 1 0.24941 0.43436 0.84163 1.0000
Ar69 Ar 1 0.24941 0.43436 0.15837 1.0000
Ar70 Ar 1 0.75059 0.56564 0.84163 1.0000
Ar71 Ar 1 0.75059 0.43436 0.84163 1.0000
Ar72 Ar 1 0.24941 0.56564 0.15837 1.0000
Ar73 Ar 1 0.24941 0.84163 0.43436 1.0000
Ar74 Ar 1 0.75059 0.15837 0.56564 1.0000
Ar75 Ar 1 0.75059 0.15837 0.43436 1.0000
Ar76 Ar 1 0.24941 0.84163 0.56564 1.0000
Ar77 Ar 1 0.24941 0.15837 0.56564 1.0000
Ar78 Ar 1 0.75059 0.84163 0.43436 1.0000
Ar79 Ar 1 0.75059 0.84163 0.56564 1.0000
Ar80 Ar 1 0.24941 0.15837 0.43436 1.0000
Ar81 Ar 1 0.34163 0.56564 0.25059 1.0000
Ar82 Ar 1 0.65837 0.43436 0.74941 1.0000
Ar83 Ar 1 0.65837 0.56564 0.74941 1.0000
Ar84 Ar 1 0.34163 0.43436 0.25059 1.0000
Ar85 Ar 1 0.65837 0.43436 0.25059 1.0000
Ar86 Ar 1 0.34163 0.56564 0.74941 1.0000
Ar87 Ar 1 0.34163 0.43436 0.74941 1.0000
Ar88 Ar 1 0.65837 0.56564 0.25059 1.0000
Ar89 Ar 1 0.06564 0.74941 0.15837 1.0000
Ar90 Ar 1 0.93436 0.25059 0.84163 1.0000
Ar91 Ar 1 0.06564 0.25059 0.84163 1.0000
Ar92 Ar 1 0.93436 0.74941 0.15837 1.0000
Ar93 Ar 1 0.93436 0.74941 0.84163 1.0000
Ar94 Ar 1 0.06564 0.25059 0.15837 1.0000
Ar95 Ar 1 0.93436 0.25059 0.15837 1.0000
Ar96 Ar 1 0.06564 0.74941 0.84163 1.0000
Ar97 Ar 1 0.84163 0.24941 0.56564 1.0000
Ar98 Ar 1 0.15837 0.75059 0.43436 1.0000
Ar99 Ar 1 0.15837 0.75059 0.56564 1.0000
Ar100 Ar 1 0.84163 0.24941 0.43436 1.0000
Ar101 Ar 1 0.15837 0.24941 0.43436 1.0000
Ar102 Ar 1 0.84163 0.75059 0.56564 1.0000
Ar103 Ar 1 0.84163 0.75059 0.43436 1.0000
Ar104 Ar 1 0.15837 0.24941 0.56564 1.0000
Ar105 Ar 1 0.56564 0.34163 0.74941 1.0000
Ar106 Ar 1 0.43436 0.65837 0.25059 1.0000
Ar107 Ar 1 0.56564 0.65837 0.25059 1.0000
Ar108 Ar 1 0.43436 0.34163 0.74941 1.0000
Ar109 Ar 1 0.43436 0.65837 0.74941 1.0000
Ar110 Ar 1 0.56564 0.34163 0.25059 1.0000
Ar111 Ar 1 0.43436 0.34163 0.25059 1.0000
Ar112 Ar 1 0.56564 0.65837 0.74941 1.0000
Ar113 Ar 1 0.74941 0.06564 0.84163 1.0000
Ar114 Ar 1 0.25059 0.93436 0.15837 1.0000
Ar115 Ar 1 0.25059 0.06564 0.15837 1.0000
Ar116 Ar 1 0.74941 0.93436 0.84163 1.0000
Ar117 Ar 1 0.74941 0.93436 0.15837 1.0000
Ar118 Ar 1 0.25059 0.06564 0.84163 1.0000
Ar119 Ar 1 0.25059 0.93436 0.84163 1.0000
Ar120 Ar 1 0.74941 0.06564 0.15837 1.0000
Ar121 Ar 1 0.74941 0.34163 0.43436 1.0000
Ar122 Ar 1 0.25059 0.65837 0.56564 1.0000
Ar123 Ar 1 0.25059 0.65837 0.43436 1.0000
Ar124 Ar 1 0.74941 0.34163 0.56564 1.0000
Ar125 Ar 1 0.74941 0.65837 0.56564 1.0000
Ar126 Ar 1 0.25059 0.34163 0.43436 1.0000
Ar127 Ar 1 0.25059 0.34163 0.56564 1.0000
Ar128 Ar 1 0.74941 0.65837 0.43436 1.0000
Ar129 Ar 1 0.84163 0.06564 0.25059 1.0000
Ar130 Ar 1 0.15837 0.93436 0.74941 1.0000
Ar131 Ar 1 0.15837 0.06564 0.74941 1.0000
Ar132 Ar 1 0.84163 0.93436 0.25059 1.0000
Ar133 Ar 1 0.15837 0.93436 0.25059 1.0000
Ar134 Ar 1 0.84163 0.06564 0.74941 1.0000
Ar135 Ar 1 0.84163 0.93436 0.74941 1.0000
Ar136 Ar 1 0.15837 0.06564 0.25059 1.0000
Ar137 Ar 1 0.56564 0.24941 0.15837 1.0000
Ar138 Ar 1 0.43436 0.75059 0.84163 1.0000
Ar139 Ar 1 0.56564 0.75059 0.84163 1.0000
Ar140 Ar 1 0.43436 0.24941 0.15837 1.0000
Ar141 Ar 1 0.43436 0.24941 0.84163 1.0000
Ar142 Ar 1 0.56564 0.75059 0.15837 1.0000
Ar143 Ar 1 0.43436 0.75059 0.15837 1.0000
Ar144 Ar 1 0.56564 0.24941 0.84163 1.0000
Ar145 Ar 1 0.84163 0.74941 0.06564 1.0000
Ar146 Ar 1 0.15837 0.25059 0.93436 1.0000
Ar147 Ar 1 0.15837 0.25059 0.06564 1.0000
Ar148 Ar 1 0.84163 0.74941 0.93436 1.0000
Ar149 Ar 1 0.15837 0.74941 0.93436 1.0000
Ar150 Ar 1 0.84163 0.25059 0.06564 1.0000
Ar151 Ar 1 0.84163 0.25059 0.93436 1.0000
Ar152 Ar 1 0.15837 0.74941 0.06564 1.0000
Ar153 Ar 1 0.56564 0.84163 0.24941 1.0000
Ar154 Ar 1 0.43436 0.15837 0.75059 1.0000
Ar155 Ar 1 0.56564 0.15837 0.75059 1.0000
Ar156 Ar 1 0.43436 0.84163 0.24941 1.0000
Ar157 Ar 1 0.43436 0.15837 0.24941 1.0000
Ar158 Ar 1 0.56564 0.84163 0.75059 1.0000
Ar159 Ar 1 0.43436 0.84163 0.75059 1.0000
Ar160 Ar 1 0.56564 0.15837 0.24941 1.0000
Ar161 Ar 1 0.74941 0.56564 0.34163 1.0000
Ar162 Ar 1 0.25059 0.43436 0.65837 1.0000
Ar163 Ar 1 0.25059 0.56564 0.65837 1.0000
Ar164 Ar 1 0.74941 0.43436 0.34163 1.0000
Ar165 Ar 1 0.74941 0.43436 0.65837 1.0000
Ar166 Ar 1 0.25059 0.56564 0.34163 1.0000
Ar167 Ar 1 0.25059 0.43436 0.34163 1.0000
Ar168 Ar 1 0.74941 0.56564 0.65837 1.0000
Ar169 Ar 1 0.74941 0.84163 0.93436 1.0000
Ar170 Ar 1 0.25059 0.15837 0.06564 1.0000
Ar171 Ar 1 0.25059 0.15837 0.93436 1.0000
Ar172 Ar 1 0.74941 0.84163 0.06564 1.0000
Ar173 Ar 1 0.74941 0.15837 0.06564 1.0000
Ar174 Ar 1 0.25059 0.84163 0.93436 1.0000
Ar175 Ar 1 0.25059 0.84163 0.06564 1.0000
Ar176 Ar 1 0.74941 0.15837 0.93436 1.0000
Ar177 Ar 1 0.84163 0.56564 0.75059 1.0000
Ar178 Ar 1 0.15837 0.43436 0.24941 1.0000
Ar179 Ar 1 0.15837 0.56564 0.24941 1.0000
Ar180 Ar 1 0.84163 0.43436 0.75059 1.0000
Ar181 Ar 1 0.15837 0.43436 0.75059 1.0000
Ar182 Ar 1 0.84163 0.56564 0.24941 1.0000
Ar183 Ar 1 0.84163 0.43436 0.24941 1.0000
Ar184 Ar 1 0.15837 0.56564 0.75059 1.0000
Ar185 Ar 1 0.56564 0.74941 0.65837 1.0000
Ar186 Ar 1 0.43436 0.25059 0.34163 1.0000
Ar187 Ar 1 0.56564 0.25059 0.34163 1.0000
Ar188 Ar 1 0.43436 0.74941 0.65837 1.0000
Ar189 Ar 1 0.43436 0.74941 0.34163 1.0000
Ar190 Ar 1 0.56564 0.25059 0.65837 1.0000
Ar191 Ar 1 0.43436 0.25059 0.65837 1.0000
Ar192 Ar 1 0.56564 0.74941 0.34163 1.0000
B1 B 1 0.29453 0.20547 0.08333 1.0000
B2 B 1 0.70547 0.79453 0.91667 1.0000
B3 B 1 0.70547 0.79453 0.08333 1.0000
B4 B 1 0.29453 0.20547 0.91667 1.0000
B5 B 1 0.70547 0.20547 0.91667 1.0000
B6 B 1 0.29453 0.79453 0.08333 1.0000
B7 B 1 0.29453 0.79453 0.91667 1.0000
B8 B 1 0.70547 0.20547 0.08333 1.0000
B9 B 1 0.08333 0.29453 0.20547 1.0000
B10 B 1 0.91667 0.70547 0.79453 1.0000
B11 B 1 0.08333 0.70547 0.79453 1.0000
B12 B 1 0.91667 0.29453 0.20547 1.0000
B13 B 1 0.91667 0.70547 0.20547 1.0000
B14 B 1 0.08333 0.29453 0.79453 1.0000
B15 B 1 0.91667 0.29453 0.79453 1.0000
B16 B 1 0.08333 0.70547 0.20547 1.0000
B17 B 1 0.20547 0.08333 0.29453 1.0000
B18 B 1 0.79453 0.91667 0.70547 1.0000
B19 B 1 0.79453 0.08333 0.70547 1.0000
B20 B 1 0.20547 0.91667 0.29453 1.0000
B21 B 1 0.20547 0.91667 0.70547 1.0000
B22 B 1 0.79453 0.08333 0.29453 1.0000
B23 B 1 0.79453 0.91667 0.29453 1.0000
B24 B 1 0.20547 0.08333 0.70547 1.0000
B25 B 1 0.20547 0.29453 0.91667 1.0000
B26 B 1 0.79453 0.70547 0.08333 1.0000
B27 B 1 0.79453 0.70547 0.91667 1.0000
B28 B 1 0.20547 0.29453 0.08333 1.0000
B29 B 1 0.20547 0.70547 0.08333 1.0000
B30 B 1 0.79453 0.29453 0.91667 1.0000
B31 B 1 0.79453 0.29453 0.08333 1.0000
B32 B 1 0.20547 0.70547 0.91667 1.0000
B33 B 1 0.29453 0.08333 0.79453 1.0000
B34 B 1 0.70547 0.91667 0.20547 1.0000
B35 B 1 0.70547 0.08333 0.20547 1.0000
B36 B 1 0.29453 0.91667 0.79453 1.0000
B37 B 1 0.70547 0.91667 0.79453 1.0000
B38 B 1 0.29453 0.08333 0.20547 1.0000
B39 B 1 0.29453 0.91667 0.20547 1.0000
B40 B 1 0.70547 0.08333 0.79453 1.0000
B41 B 1 0.08333 0.20547 0.70547 1.0000
B42 B 1 0.91667 0.79453 0.29453 1.0000
B43 B 1 0.08333 0.79453 0.29453 1.0000
B44 B 1 0.91667 0.20547 0.70547 1.0000
B45 B 1 0.91667 0.20547 0.29453 1.0000
B46 B 1 0.08333 0.79453 0.70547 1.0000
B47 B 1 0.91667 0.79453 0.70547 1.0000
B48 B 1 0.08333 0.20547 0.29453 1.0000
B49 B 1 0.29453 0.70547 0.58333 1.0000
B50 B 1 0.70547 0.29453 0.41667 1.0000
B51 B 1 0.70547 0.29453 0.58333 1.0000
B52 B 1 0.29453 0.70547 0.41667 1.0000
B53 B 1 0.70547 0.70547 0.41667 1.0000
B54 B 1 0.29453 0.29453 0.58333 1.0000
B55 B 1 0.29453 0.29453 0.41667 1.0000
B56 B 1 0.70547 0.70547 0.58333 1.0000
B57 B 1 0.20547 0.58333 0.79453 1.0000
B58 B 1 0.79453 0.41667 0.20547 1.0000
B59 B 1 0.79453 0.58333 0.20547 1.0000
B60 B 1 0.20547 0.41667 0.79453 1.0000
B61 B 1 0.20547 0.41667 0.20547 1.0000
B62 B 1 0.79453 0.58333 0.79453 1.0000
B63 B 1 0.79453 0.41667 0.79453 1.0000
B64 B 1 0.20547 0.58333 0.20547 1.0000
B65 B 1 0.20547 0.79453 0.41667 1.0000
B66 B 1 0.79453 0.20547 0.58333 1.0000
B67 B 1 0.79453 0.20547 0.41667 1.0000
B68 B 1 0.20547 0.79453 0.58333 1.0000
B69 B 1 0.20547 0.20547 0.58333 1.0000
B70 B 1 0.79453 0.79453 0.41667 1.0000
B71 B 1 0.79453 0.79453 0.58333 1.0000
B72 B 1 0.20547 0.20547 0.41667 1.0000
B73 B 1 0.29453 0.58333 0.29453 1.0000
B74 B 1 0.70547 0.41667 0.70547 1.0000
B75 B 1 0.70547 0.58333 0.70547 1.0000
B76 B 1 0.29453 0.41667 0.29453 1.0000
B77 B 1 0.70547 0.41667 0.29453 1.0000
B78 B 1 0.29453 0.58333 0.70547 1.0000
B79 B 1 0.29453 0.41667 0.70547 1.0000
B80 B 1 0.70547 0.58333 0.29453 1.0000
B81 B 1 0.58333 0.29453 0.70547 1.0000
B82 B 1 0.41667 0.70547 0.29453 1.0000
B83 B 1 0.58333 0.70547 0.29453 1.0000
B84 B 1 0.41667 0.29453 0.70547 1.0000
B85 B 1 0.41667 0.70547 0.70547 1.0000
B86 B 1 0.58333 0.29453 0.29453 1.0000
B87 B 1 0.41667 0.29453 0.29453 1.0000
B88 B 1 0.58333 0.70547 0.70547 1.0000
B89 B 1 0.58333 0.20547 0.20547 1.0000
B90 B 1 0.41667 0.79453 0.79453 1.0000
B91 B 1 0.58333 0.79453 0.79453 1.0000
B92 B 1 0.41667 0.20547 0.20547 1.0000
B93 B 1 0.41667 0.20547 0.79453 1.0000
B94 B 1 0.58333 0.79453 0.20547 1.0000
B95 B 1 0.41667 0.79453 0.20547 1.0000
B96 B 1 0.58333 0.20547 0.79453 1.0000
B97 B 1 0.34581 0.23489 1.00000 1.0000
B98 B 1 0.65419 0.76511 1.00000 1.0000
B99 B 1 0.65419 0.23489 1.00000 1.0000
B100 B 1 0.34581 0.76511 1.00000 1.0000
B101 B 1 1.00000 0.34581 0.23489 1.0000
B102 B 1 1.00000 0.65419 0.76511 1.0000
B103 B 1 1.00000 0.65419 0.23489 1.0000
B104 B 1 1.00000 0.34581 0.76511 1.0000
B105 B 1 0.23489 1.00000 0.34581 1.0000
B106 B 1 0.76511 1.00000 0.65419 1.0000
B107 B 1 0.23489 1.00000 0.65419 1.0000
B108 B 1 0.76511 1.00000 0.34581 1.0000
B109 B 1 0.23489 0.34581 1.00000 1.0000
B110 B 1 0.76511 0.65419 1.00000 1.0000
B111 B 1 0.23489 0.65419 1.00000 1.0000
B112 B 1 0.76511 0.34581 1.00000 1.0000
B113 B 1 0.34581 1.00000 0.76511 1.0000
B114 B 1 0.65419 1.00000 0.23489 1.0000
B115 B 1 0.65419 1.00000 0.76511 1.0000
B116 B 1 0.34581 1.00000 0.23489 1.0000
B117 B 1 1.00000 0.23489 0.65419 1.0000
B118 B 1 1.00000 0.76511 0.34581 1.0000
B119 B 1 1.00000 0.23489 0.34581 1.0000
B120 B 1 1.00000 0.76511 0.65419 1.0000
B121 B 1 0.34581 0.73489 0.50000 1.0000
B122 B 1 0.65419 0.26511 0.50000 1.0000
B123 B 1 0.65419 0.73489 0.50000 1.0000
B124 B 1 0.34581 0.26511 0.50000 1.0000
B125 B 1 1.00000 0.84581 0.73489 1.0000
B126 B 1 1.00000 0.15419 0.26511 1.0000
B127 B 1 1.00000 0.15419 0.73489 1.0000
B128 B 1 1.00000 0.84581 0.26511 1.0000
B129 B 1 0.23489 0.50000 0.84581 1.0000
B130 B 1 0.76511 0.50000 0.15419 1.0000
B131 B 1 0.23489 0.50000 0.15419 1.0000
B132 B 1 0.76511 0.50000 0.84581 1.0000
B133 B 1 0.23489 0.84581 0.50000 1.0000
B134 B 1 0.76511 0.15419 0.50000 1.0000
B135 B 1 0.23489 0.15419 0.50000 1.0000
B136 B 1 0.76511 0.84581 0.50000 1.0000
B137 B 1 0.34581 0.50000 0.26511 1.0000
B138 B 1 0.65419 0.50000 0.73489 1.0000
B139 B 1 0.65419 0.50000 0.26511 1.0000
B140 B 1 0.34581 0.50000 0.73489 1.0000
B141 B 1 1.00000 0.73489 0.15419 1.0000
B142 B 1 1.00000 0.26511 0.84581 1.0000
B143 B 1 1.00000 0.73489 0.84581 1.0000
B144 B 1 1.00000 0.26511 0.15419 1.0000
B145 B 1 0.84581 0.23489 0.50000 1.0000
B146 B 1 0.15419 0.76511 0.50000 1.0000
B147 B 1 0.15419 0.23489 0.50000 1.0000
B148 B 1 0.84581 0.76511 0.50000 1.0000
B149 B 1 0.50000 0.34581 0.73489 1.0000
B150 B 1 0.50000 0.65419 0.26511 1.0000
B151 B 1 0.50000 0.65419 0.73489 1.0000
B152 B 1 0.50000 0.34581 0.26511 1.0000
B153 B 1 0.73489 1.00000 0.84581 1.0000
B154 B 1 0.26511 1.00000 0.15419 1.0000
B155 B 1 0.73489 1.00000 0.15419 1.0000
B156 B 1 0.26511 1.00000 0.84581 1.0000
B157 B 1 0.73489 0.34581 0.50000 1.0000
B158 B 1 0.26511 0.65419 0.50000 1.0000
B159 B 1 0.73489 0.65419 0.50000 1.0000
B160 B 1 0.26511 0.34581 0.50000 1.0000
B161 B 1 0.84581 1.00000 0.26511 1.0000
B162 B 1 0.15419 1.00000 0.73489 1.0000
B163 B 1 0.15419 1.00000 0.26511 1.0000
B164 B 1 0.84581 1.00000 0.73489 1.0000
B165 B 1 0.50000 0.23489 0.15419 1.0000
B166 B 1 0.50000 0.76511 0.84581 1.0000
B167 B 1 0.50000 0.23489 0.84581 1.0000
B168 B 1 0.50000 0.76511 0.15419 1.0000
B169 B 1 0.84581 0.73489 1.00000 1.0000
B170 B 1 0.15419 0.26511 1.00000 1.0000
B171 B 1 0.15419 0.73489 1.00000 1.0000
B172 B 1 0.84581 0.26511 1.00000 1.0000
B173 B 1 0.50000 0.84581 0.23489 1.0000
B174 B 1 0.50000 0.15419 0.76511 1.0000
B175 B 1 0.50000 0.15419 0.23489 1.0000
B176 B 1 0.50000 0.84581 0.76511 1.0000
B177 B 1 0.73489 0.50000 0.34581 1.0000
B178 B 1 0.26511 0.50000 0.65419 1.0000
B179 B 1 0.73489 0.50000 0.65419 1.0000
B180 B 1 0.26511 0.50000 0.34581 1.0000
B181 B 1 0.73489 0.84581 1.00000 1.0000
B182 B 1 0.26511 0.15419 1.00000 1.0000
B183 B 1 0.73489 0.15419 1.00000 1.0000
B184 B 1 0.26511 0.84581 1.00000 1.0000
B185 B 1 0.84581 0.50000 0.76511 1.0000
B186 B 1 0.15419 0.50000 0.23489 1.0000
B187 B 1 0.15419 0.50000 0.76511 1.0000
B188 B 1 0.84581 0.50000 0.23489 1.0000
B189 B 1 0.50000 0.73489 0.65419 1.0000
B190 B 1 0.50000 0.26511 0.34581 1.0000
B191 B 1 0.50000 0.73489 0.34581 1.0000
B192 B 1 0.50000 0.26511 0.65419 1.0000
B193 B 1 0.39866 0.24929 0.10134 1.0000
B194 B 1 0.60134 0.75071 0.89866 1.0000
B195 B 1 0.60134 0.75071 0.10134 1.0000
B196 B 1 0.39866 0.24929 0.89866 1.0000
B197 B 1 0.60134 0.24929 0.89866 1.0000
B198 B 1 0.39866 0.75071 0.10134 1.0000
B199 B 1 0.39866 0.75071 0.89866 1.0000
B200 B 1 0.60134 0.24929 0.10134 1.0000
B201 B 1 0.10134 0.39866 0.24929 1.0000
B202 B 1 0.89866 0.60134 0.75071 1.0000
B203 B 1 0.10134 0.60134 0.75071 1.0000
B204 B 1 0.89866 0.39866 0.24929 1.0000
B205 B 1 0.89866 0.60134 0.24929 1.0000
B206 B 1 0.10134 0.39866 0.75071 1.0000
B207 B 1 0.89866 0.39866 0.75071 1.0000
B208 B 1 0.10134 0.60134 0.24929 1.0000
B209 B 1 0.24929 0.10134 0.39866 1.0000
B210 B 1 0.75071 0.89866 0.60134 1.0000
B211 B 1 0.75071 0.10134 0.60134 1.0000
B212 B 1 0.24929 0.89866 0.39866 1.0000
B213 B 1 0.24929 0.89866 0.60134 1.0000
B214 B 1 0.75071 0.10134 0.39866 1.0000
B215 B 1 0.75071 0.89866 0.39866 1.0000
B216 B 1 0.24929 0.10134 0.60134 1.0000
B217 B 1 0.24929 0.39866 0.89866 1.0000
B218 B 1 0.75071 0.60134 0.10134 1.0000
B219 B 1 0.75071 0.60134 0.89866 1.0000
B220 B 1 0.24929 0.39866 0.10134 1.0000
B221 B 1 0.24929 0.60134 0.10134 1.0000
B222 B 1 0.75071 0.39866 0.89866 1.0000
B223 B 1 0.75071 0.39866 0.10134 1.0000
B224 B 1 0.24929 0.60134 0.89866 1.0000
B225 B 1 0.39866 0.10134 0.75071 1.0000
B226 B 1 0.60134 0.89866 0.24929 1.0000
B227 B 1 0.60134 0.10134 0.24929 1.0000
B228 B 1 0.39866 0.89866 0.75071 1.0000
B229 B 1 0.60134 0.89866 0.75071 1.0000
B230 B 1 0.39866 0.10134 0.24929 1.0000
B231 B 1 0.39866 0.89866 0.24929 1.0000
B232 B 1 0.60134 0.10134 0.75071 1.0000
B233 B 1 0.10134 0.24929 0.60134 1.0000
B234 B 1 0.89866 0.75071 0.39866 1.0000
B235 B 1 0.10134 0.75071 0.39866 1.0000
B236 B 1 0.89866 0.24929 0.60134 1.0000
B237 B 1 0.89866 0.24929 0.39866 1.0000
B238 B 1 0.10134 0.75071 0.60134 1.0000
B239 B 1 0.89866 0.75071 0.60134 1.0000
B240 B 1 0.10134 0.24929 0.39866 1.0000
B241 B 1 0.39866 0.74929 0.60134 1.0000
B242 B 1 0.60134 0.25071 0.39866 1.0000
B243 B 1 0.60134 0.25071 0.60134 1.0000
B244 B 1 0.39866 0.74929 0.39866 1.0000
B245 B 1 0.60134 0.74929 0.39866 1.0000
B246 B 1 0.39866 0.25071 0.60134 1.0000
B247 B 1 0.39866 0.25071 0.39866 1.0000
B248 B 1 0.60134 0.74929 0.60134 1.0000
B249 B 1 0.10134 0.89866 0.74929 1.0000
B250 B 1 0.89866 0.10134 0.25071 1.0000
B251 B 1 0.10134 0.10134 0.25071 1.0000
B252 B 1 0.89866 0.89866 0.74929 1.0000
B253 B 1 0.89866 0.10134 0.74929 1.0000
B254 B 1 0.10134 0.89866 0.25071 1.0000
B255 B 1 0.89866 0.89866 0.25071 1.0000
B256 B 1 0.10134 0.10134 0.74929 1.0000
B257 B 1 0.39866 0.60134 0.25071 1.0000
B258 B 1 0.60134 0.39866 0.74929 1.0000
B259 B 1 0.60134 0.60134 0.74929 1.0000
B260 B 1 0.39866 0.39866 0.25071 1.0000
B261 B 1 0.60134 0.39866 0.25071 1.0000
B262 B 1 0.39866 0.60134 0.74929 1.0000
B263 B 1 0.39866 0.39866 0.74929 1.0000
B264 B 1 0.60134 0.60134 0.25071 1.0000
B265 B 1 0.10134 0.74929 0.10134 1.0000
B266 B 1 0.89866 0.25071 0.89866 1.0000
B267 B 1 0.10134 0.25071 0.89866 1.0000
B268 B 1 0.89866 0.74929 0.10134 1.0000
B269 B 1 0.89866 0.74929 0.89866 1.0000
B270 B 1 0.10134 0.25071 0.10134 1.0000
B271 B 1 0.89866 0.25071 0.10134 1.0000
B272 B 1 0.10134 0.74929 0.89866 1.0000
B273 B 1 0.74929 0.10134 0.89866 1.0000
B274 B 1 0.25071 0.89866 0.10134 1.0000
B275 B 1 0.25071 0.10134 0.10134 1.0000
B276 B 1 0.74929 0.89866 0.89866 1.0000
B277 B 1 0.74929 0.89866 0.10134 1.0000
B278 B 1 0.25071 0.10134 0.89866 1.0000
B279 B 1 0.25071 0.89866 0.89866 1.0000
B280 B 1 0.74929 0.10134 0.10134 1.0000
B281 B 1 0.74929 0.39866 0.39866 1.0000
B282 B 1 0.25071 0.60134 0.60134 1.0000
B283 B 1 0.25071 0.60134 0.39866 1.0000
B284 B 1 0.74929 0.39866 0.60134 1.0000
B285 B 1 0.74929 0.60134 0.60134 1.0000
B286 B 1 0.25071 0.39866 0.39866 1.0000
B287 B 1 0.25071 0.39866 0.60134 1.0000
B288 B 1 0.74929 0.60134 0.39866 1.0000
B289 B 1 0.30702 0.30702 0.06610 1.0000
B290 B 1 0.69298 0.69298 0.93390 1.0000
B291 B 1 0.69298 0.69298 0.06610 1.0000
B292 B 1 0.30702 0.30702 0.93390 1.0000
B293 B 1 0.69298 0.30702 0.93390 1.0000
B294 B 1 0.30702 0.69298 0.06610 1.0000
B295 B 1 0.30702 0.69298 0.93390 1.0000
B296 B 1 0.69298 0.30702 0.06610 1.0000
B297 B 1 0.06610 0.30702 0.30702 1.0000
B298 B 1 0.93390 0.69298 0.69298 1.0000
B299 B 1 0.06610 0.69298 0.69298 1.0000
B300 B 1 0.93390 0.30702 0.30702 1.0000
B301 B 1 0.93390 0.69298 0.30702 1.0000
B302 B 1 0.06610 0.30702 0.69298 1.0000
B303 B 1 0.93390 0.30702 0.69298 1.0000
B304 B 1 0.06610 0.69298 0.30702 1.0000
B305 B 1 0.30702 0.06610 0.30702 1.0000
B306 B 1 0.69298 0.93390 0.69298 1.0000
B307 B 1 0.69298 0.06610 0.69298 1.0000
B308 B 1 0.30702 0.93390 0.30702 1.0000
B309 B 1 0.30702 0.93390 0.69298 1.0000
B310 B 1 0.69298 0.06610 0.30702 1.0000
B311 B 1 0.69298 0.93390 0.30702 1.0000
B312 B 1 0.30702 0.06610 0.69298 1.0000
B313 B 1 0.30702 0.80701 0.56610 1.0000
B314 B 1 0.69298 0.19298 0.43390 1.0000
B315 B 1 0.69298 0.19298 0.56610 1.0000
B316 B 1 0.30702 0.80701 0.43390 1.0000
B317 B 1 0.69298 0.80701 0.43390 1.0000
B318 B 1 0.30702 0.19298 0.56610 1.0000
B319 B 1 0.30702 0.19298 0.43390 1.0000
B320 B 1 0.69298 0.80701 0.56610 1.0000
B321 B 1 0.06610 0.80701 0.80701 1.0000
B322 B 1 0.93390 0.19298 0.19298 1.0000
B323 B 1 0.06610 0.19298 0.19298 1.0000
B324 B 1 0.93390 0.80701 0.80701 1.0000
B325 B 1 0.93390 0.19298 0.80701 1.0000
B326 B 1 0.06610 0.80701 0.19298 1.0000
B327 B 1 0.93390 0.80701 0.19298 1.0000
B328 B 1 0.06610 0.19298 0.80701 1.0000
B329 B 1 0.30702 0.56610 0.80701 1.0000
B330 B 1 0.69298 0.43390 0.19298 1.0000
B331 B 1 0.69298 0.56610 0.19298 1.0000
B332 B 1 0.30702 0.43390 0.80701 1.0000
B333 B 1 0.30702 0.43390 0.19298 1.0000
B334 B 1 0.69298 0.56610 0.80701 1.0000
B335 B 1 0.69298 0.43390 0.80701 1.0000
B336 B 1 0.30702 0.56610 0.19298 1.0000
B337 B 1 0.80701 0.30702 0.56610 1.0000
B338 B 1 0.19298 0.69298 0.43390 1.0000
B339 B 1 0.19298 0.69298 0.56610 1.0000
B340 B 1 0.80701 0.30702 0.43390 1.0000
B341 B 1 0.19298 0.30702 0.43390 1.0000
B342 B 1 0.80701 0.69298 0.56610 1.0000
B343 B 1 0.80701 0.69298 0.43390 1.0000
B344 B 1 0.19298 0.30702 0.56610 1.0000
B345 B 1 0.56610 0.30702 0.80701 1.0000
B346 B 1 0.43390 0.69298 0.19298 1.0000
B347 B 1 0.56610 0.69298 0.19298 1.0000
B348 B 1 0.43390 0.30702 0.80701 1.0000
B349 B 1 0.43390 0.69298 0.80701 1.0000
B350 B 1 0.56610 0.30702 0.19298 1.0000
B351 B 1 0.43390 0.30702 0.19298 1.0000
B352 B 1 0.56610 0.69298 0.80701 1.0000
B353 B 1 0.80701 0.06610 0.80701 1.0000
B354 B 1 0.19298 0.93390 0.19298 1.0000
B355 B 1 0.19298 0.06610 0.19298 1.0000
B356 B 1 0.80701 0.93390 0.80701 1.0000
B357 B 1 0.80701 0.93390 0.19298 1.0000
B358 B 1 0.19298 0.06610 0.80701 1.0000
B359 B 1 0.19298 0.93390 0.80701 1.0000
B360 B 1 0.80701 0.06610 0.19298 1.0000
B361 B 1 0.80701 0.80701 0.06610 1.0000
B362 B 1 0.19298 0.19298 0.93390 1.0000
B363 B 1 0.19298 0.19298 0.06610 1.0000
B364 B 1 0.80701 0.80701 0.93390 1.0000
B365 B 1 0.19298 0.80701 0.93390 1.0000
B366 B 1 0.80701 0.19298 0.06610 1.0000
B367 B 1 0.80701 0.19298 0.93390 1.0000
B368 B 1 0.19298 0.80701 0.06610 1.0000
B369 B 1 0.56610 0.80701 0.30702 1.0000
B370 B 1 0.43390 0.19298 0.69298 1.0000
B371 B 1 0.56610 0.19298 0.69298 1.0000
B372 B 1 0.43390 0.80701 0.30702 1.0000
B373 B 1 0.43390 0.19298 0.30702 1.0000
B374 B 1 0.56610 0.80701 0.69298 1.0000
B375 B 1 0.43390 0.80701 0.69298 1.0000
B376 B 1 0.56610 0.19298 0.30702 1.0000
B377 B 1 0.80701 0.56610 0.30702 1.0000
B378 B 1 0.19298 0.43390 0.69298 1.0000
B379 B 1 0.19298 0.56610 0.69298 1.0000
B380 B 1 0.80701 0.43390 0.30702 1.0000
B381 B 1 0.80701 0.43390 0.69298 1.0000
B382 B 1 0.19298 0.56610 0.30702 1.0000
B383 B 1 0.19298 0.43390 0.30702 1.0000
B384 B 1 0.80701 0.56610 0.69298 1.0000
#End of data_35_MIHHER

data_36_IMZYCO01
_chemical_formula_structural	'Co(Im)2'
_chemical_formula_sum		'Ar1 B2'
_citation_special_details	'original source structure doi: 10.1002/chem.200304957'
;
File: IMZYCO01.cif.
;
_cell_length_a			7.82061
_cell_length_b			7.82061
_cell_length_c			4.15543
_cell_angle_alpha		90.00000
_cell_angle_beta		90.00000
_cell_angle_gamma		90.00000
_cell_volume			254.15412
_cell_formula_units_Z		32
_symmetry_space_group_name_H-M	'P 1'
_symmetry_Int_Tables_number	1
loop_
_symmetry_equiv_pos_site_id
_symmetry_equiv_pos_as_xyz
1 x,y,z
loop_
_atom_site_label
_atom_site_type_symbol
_atom_site_symmetry_multiplicity
_atom_site_fract_x
_atom_site_fract_y
_atom_site_fract_z
_atom_site_occupancy
Ar1 Ar 1 0.35071 0.39916 0.82297 1.0000
Ar2 Ar 1 0.14929 0.10084 0.32297 1.0000
Ar3 Ar 1 0.60084 0.85071 0.07297 1.0000
Ar4 Ar 1 0.89916 0.64929 0.57297 1.0000
Ar5 Ar 1 0.35071 0.60084 0.32297 1.0000
Ar6 Ar 1 0.14929 0.89916 0.82297 1.0000
Ar7 Ar 1 0.60084 0.14929 0.57297 1.0000
Ar8 Ar 1 0.89916 0.35071 0.07297 1.0000
Ar9 Ar 1 0.85071 0.89916 0.32297 1.0000
Ar10 Ar 1 0.64929 0.60084 0.82297 1.0000
Ar11 Ar 1 0.10084 0.35071 0.57297 1.0000
Ar12 Ar 1 0.39916 0.14929 0.07297 1.0000
Ar13 Ar 1 0.85071 0.10084 0.82297 1.0000
Ar14 Ar 1 0.64929 0.39916 0.32297 1.0000
Ar15 Ar 1 0.10084 0.64929 0.07297 1.0000
Ar16 Ar 1 0.39916 0.85071 0.57297 1.0000
Ar17 Ar 1 0.14835 0.40276 0.11803 1.0000
Ar18 Ar 1 0.35165 0.09724 0.61803 1.0000
Ar19 Ar 1 0.59724 0.64835 0.36803 1.0000
Ar20 Ar 1 0.90276 0.85165 0.86803 1.0000
Ar21 Ar 1 0.14835 0.59724 0.61803 1.0000
Ar22 Ar 1 0.35165 0.90276 0.11803 1.0000
Ar23 Ar 1 0.59724 0.35165 0.86803 1.0000
Ar24 Ar 1 0.90276 0.14835 0.36803 1.0000
Ar25 Ar 1 0.64835 0.90276 0.61803 1.0000
Ar26 Ar 1 0.85165 0.59724 0.11803 1.0000
Ar27 Ar 1 0.09724 0.14835 0.86803 1.0000
Ar28 Ar 1 0.40276 0.35165 0.36803 1.0000
Ar29 Ar 1 0.64835 0.09724 0.11803 1.0000
Ar30 Ar 1 0.85165 0.40276 0.61803 1.0000
Ar31 Ar 1 0.09724 0.85165 0.36803 1.0000
Ar32 Ar 1 0.40276 0.64835 0.86803 1.0000
B1 B 1 0.46815 0.36005 0.89250 1.0000
B2 B 1 0.03185 0.13995 0.39250 1.0000
B3 B 1 0.63995 0.96815 0.14250 1.0000
B4 B 1 0.86005 0.53185 0.64250 1.0000
B5 B 1 0.46815 0.63995 0.39250 1.0000
B6 B 1 0.03185 0.86005 0.89250 1.0000
B7 B 1 0.63995 0.03185 0.64250 1.0000
B8 B 1 0.86005 0.46815 0.14250 1.0000
B9 B 1 0.96815 0.86005 0.39250 1.0000
B10 B 1 0.53185 0.63995 0.89250 1.0000
B11 B 1 0.13995 0.46815 0.64250 1.0000
B12 B 1 0.36005 0.03185 0.14250 1.0000
B13 B 1 0.96815 0.13995 0.89250 1.0000
B14 B 1 0.53185 0.36005 0.39250 1.0000
B15 B 1 0.13995 0.53185 0.14250 1.0000
B16 B 1 0.36005 0.96815 0.64250 1.0000
B17 B 1 0.35140 0.35540 0.58830 1.0000
B18 B 1 0.14860 0.14460 0.08830 1.0000
B19 B 1 0.64460 0.85140 0.83830 1.0000
B20 B 1 0.85540 0.64860 0.33830 1.0000
B21 B 1 0.35140 0.64460 0.08830 1.0000
B22 B 1 0.14860 0.85540 0.58830 1.0000
B23 B 1 0.64460 0.14860 0.33830 1.0000
B24 B 1 0.85540 0.35140 0.83830 1.0000
B25 B 1 0.85140 0.85540 0.08830 1.0000
B26 B 1 0.64860 0.64460 0.58830 1.0000
B27 B 1 0.14460 0.35140 0.33830 1.0000
B28 B 1 0.35540 0.14860 0.83830 1.0000
B29 B 1 0.85140 0.14460 0.58830 1.0000
B30 B 1 0.64860 0.35540 0.08830 1.0000
B31 B 1 0.14460 0.64860 0.83830 1.0000
B32 B 1 0.35540 0.85140 0.33830 1.0000
B33 B 1 0.24435 0.37605 0.95815 1.0000
B34 B 1 0.25565 0.12395 0.45815 1.0000
B35 B 1 0.62395 0.74435 0.20815 1.0000
B36 B 1 0.87605 0.75565 0.70815 1.0000
B37 B 1 0.24435 0.62395 0.45815 1.0000
B38 B 1 0.25565 0.87605 0.95815 1.0000
B39 B 1 0.62395 0.25565 0.70815 1.0000
B40 B 1 0.87605 0.24435 0.20815 1.0000
B41 B 1 0.74435 0.87605 0.45815 1.0000
B42 B 1 0.75565 0.62395 0.95815 1.0000
B43 B 1 0.12395 0.24435 0.70815 1.0000
B44 B 1 0.37605 0.25565 0.20815 1.0000
B45 B 1 0.74435 0.12395 0.95815 1.0000
B46 B 1 0.75565 0.37605 0.45815 1.0000
B47 B 1 0.12395 0.75565 0.20815 1.0000
B48 B 1 0.37605 0.74435 0.70815 1.0000
B49 B 1 0.02710 0.37090 0.04300 1.0000
B50 B 1 0.47290 0.12910 0.54300 1.0000
B51 B 1 0.62910 0.52710 0.29300 1.0000
B52 B 1 0.87090 0.97290 0.79300 1.0000
B53 B 1 0.02710 0.62910 0.54300 1.0000
B54 B 1 0.47290 0.87090 0.04300 1.0000
B55 B 1 0.62910 0.47290 0.79300 1.0000
B56 B 1 0.87090 0.02710 0.29300 1.0000
B57 B 1 0.52710 0.87090 0.54300 1.0000
B58 B 1 0.97290 0.62910 0.04300 1.0000
B59 B 1 0.12910 0.02710 0.79300 1.0000
B60 B 1 0.37090 0.47290 0.29300 1.0000
B61 B 1 0.52710 0.12910 0.04300 1.0000
B62 B 1 0.97290 0.37090 0.54300 1.0000
B63 B 1 0.12910 0.97290 0.29300 1.0000
B64 B 1 0.37090 0.52710 0.79300 1.0000
#End of data_36_IMZYCO01

data_37_HIFWAV
_chemical_formula_structural	'Zn(Im)2'
_chemical_formula_sum		'Ar1 B2'
_citation_special_details	'original source structure doi: 10.1002/chem.200700181'
;
File: HIFWAV.cif.
;
_cell_length_a			8.05734
_cell_length_b			3.17865
_cell_length_c			8.20454
_cell_angle_alpha		90.00000
_cell_angle_beta		91.77400
_cell_angle_gamma		90.00000
_cell_volume			210.02939
_cell_formula_units_Z		20
_symmetry_space_group_name_H-M	'P 1'
_symmetry_Int_Tables_number	1
loop_
_symmetry_equiv_pos_site_id
_symmetry_equiv_pos_as_xyz
1 x,y,z
loop_
_atom_site_label
_atom_site_type_symbol
_atom_site_symmetry_multiplicity
_atom_site_fract_x
_atom_site_fract_y
_atom_site_fract_z
_atom_site_occupancy
Ar1 Ar 1 0.76737 0.03285 0.68206 1.0000
Ar2 Ar 1 0.23263 0.96715 0.31794 1.0000
Ar3 Ar 1 0.73263 0.53285 0.81794 1.0000
Ar4 Ar 1 0.26737 0.46715 0.18206 1.0000
Ar5 Ar 1 0.98714 0.25880 0.72411 1.0000
Ar6 Ar 1 0.01286 0.74120 0.27589 1.0000
Ar7 Ar 1 0.51286 0.75880 0.77589 1.0000
Ar8 Ar 1 0.48714 0.24120 0.22411 1.0000
Ar9 Ar 1 0.96787 0.76364 0.86253 1.0000
Ar10 Ar 1 0.03213 0.23636 0.13747 1.0000
Ar11 Ar 1 0.53213 0.26364 0.63747 1.0000
Ar12 Ar 1 0.46787 0.73636 0.36253 1.0000
Ar13 Ar 1 0.15902 0.82800 0.01774 1.0000
Ar14 Ar 1 0.84098 0.17200 0.98226 1.0000
Ar15 Ar 1 0.34098 0.32800 0.48226 1.0000
Ar16 Ar 1 0.65902 0.67200 0.51774 1.0000
Ar17 Ar 1 0.28341 0.94020 0.81609 1.0000
Ar18 Ar 1 0.71659 0.05980 0.18391 1.0000
Ar19 Ar 1 0.21659 0.44020 0.68391 1.0000
Ar20 Ar 1 0.78341 0.55980 0.31609 1.0000
B1 B 1 0.72305 0.25535 0.75710 1.0000
B2 B 1 0.27695 0.74465 0.24290 1.0000
B3 B 1 0.77695 0.75535 0.74290 1.0000
B4 B 1 0.22305 0.24465 0.25710 1.0000
B5 B 1 0.87830 0.17210 0.67125 1.0000
B6 B 1 0.12170 0.82790 0.32875 1.0000
B7 B 1 0.62170 0.67210 0.82875 1.0000
B8 B 1 0.37830 0.32790 0.17125 1.0000
B9 B 1 0.95770 0.48580 0.80515 1.0000
B10 B 1 0.04230 0.51420 0.19485 1.0000
B11 B 1 0.54230 0.98580 0.69485 1.0000
B12 B 1 0.45770 0.01420 0.30515 1.0000
B13 B 1 0.00570 0.98585 0.78580 1.0000
B14 B 1 0.99430 0.01415 0.21420 1.0000
B15 B 1 0.49430 0.48585 0.71420 1.0000
B16 B 1 0.50570 0.51415 0.28580 1.0000
B17 B 1 0.87635 0.94510 0.90460 1.0000
B18 B 1 0.12365 0.05490 0.09540 1.0000
B19 B 1 0.62365 0.44510 0.59540 1.0000
B20 B 1 0.37635 0.55490 0.40460 1.0000
B21 B 1 0.05005 0.76160 0.95785 1.0000
B22 B 1 0.94995 0.23840 0.04215 1.0000
B23 B 1 0.44995 0.26160 0.54215 1.0000
B24 B 1 0.55005 0.73840 0.45785 1.0000
B25 B 1 0.20685 0.58365 0.08320 1.0000
B26 B 1 0.79315 0.41635 0.91680 1.0000
B27 B 1 0.29315 0.08365 0.41680 1.0000
B28 B 1 0.70685 0.91635 0.58320 1.0000
B29 B 1 0.22900 0.93455 0.92560 1.0000
B30 B 1 0.77100 0.06545 0.07440 1.0000
B31 B 1 0.27100 0.43455 0.57440 1.0000
B32 B 1 0.72900 0.56545 0.42560 1.0000
B33 B 1 0.22860 0.71515 0.74660 1.0000
B34 B 1 0.77140 0.28485 0.25340 1.0000
B35 B 1 0.27140 0.21515 0.75340 1.0000
B36 B 1 0.72860 0.78485 0.24660 1.0000
B37 B 1 0.40455 0.85145 0.82180 1.0000
B38 B 1 0.59545 0.14855 0.17820 1.0000
B39 B 1 0.09545 0.35145 0.67820 1.0000
B40 B 1 0.90455 0.64855 0.32180 1.0000
#End of data_37_HIFWAV

data_38_GITTAF
_chemical_name_common		'ZIF61 '
_chemical_formula_structural	'Zn(Im)(mIm)'
_chemical_formula_sum		'Ar1 B2'
_citation_special_details	'original source structure doi: 10.1126/science.1152516'
;
File: GITTAF.cif.
;
_cell_length_a			7.68812
_cell_length_b			7.68812
_cell_length_c			4.11070
_cell_angle_alpha		90.00000
_cell_angle_beta		90.00000
_cell_angle_gamma		90.00000
_cell_volume			242.97223
_cell_formula_units_Z		32
_symmetry_space_group_name_H-M	'P 1'
_symmetry_Int_Tables_number	1
loop_
_symmetry_equiv_pos_site_id
_symmetry_equiv_pos_as_xyz
1 x,y,z
loop_
_atom_site_label
_atom_site_type_symbol
_atom_site_symmetry_multiplicity
_atom_site_fract_x
_atom_site_fract_y
_atom_site_fract_z
_atom_site_occupancy
Ar1 Ar 1 0.40171 0.09997 0.10028 1.0000
Ar2 Ar 1 0.59829 0.90003 0.89972 1.0000
Ar3 Ar 1 0.09829 0.90003 0.60028 1.0000
Ar4 Ar 1 0.90171 0.09997 0.39972 1.0000
Ar5 Ar 1 0.15003 0.15171 0.35028 1.0000
Ar6 Ar 1 0.84997 0.84829 0.64972 1.0000
Ar7 Ar 1 0.34997 0.84829 0.85028 1.0000
Ar8 Ar 1 0.65003 0.15171 0.14972 1.0000
Ar9 Ar 1 0.09829 0.09997 0.89972 1.0000
Ar10 Ar 1 0.90171 0.90003 0.10028 1.0000
Ar11 Ar 1 0.40171 0.90003 0.39972 1.0000
Ar12 Ar 1 0.59829 0.09997 0.60028 1.0000
Ar13 Ar 1 0.34997 0.15171 0.64972 1.0000
Ar14 Ar 1 0.65003 0.84829 0.35028 1.0000
Ar15 Ar 1 0.15003 0.84829 0.14972 1.0000
Ar16 Ar 1 0.84997 0.15171 0.85028 1.0000
Ar17 Ar 1 0.90171 0.59997 0.60028 1.0000
Ar18 Ar 1 0.09829 0.40003 0.39972 1.0000
Ar19 Ar 1 0.59829 0.40003 0.10028 1.0000
Ar20 Ar 1 0.40171 0.59997 0.89972 1.0000
Ar21 Ar 1 0.65003 0.65171 0.85028 1.0000
Ar22 Ar 1 0.34997 0.34829 0.14972 1.0000
Ar23 Ar 1 0.84997 0.34829 0.35028 1.0000
Ar24 Ar 1 0.15003 0.65171 0.64972 1.0000
Ar25 Ar 1 0.59829 0.59997 0.39972 1.0000
Ar26 Ar 1 0.40171 0.40003 0.60028 1.0000
Ar27 Ar 1 0.90171 0.40003 0.89972 1.0000
Ar28 Ar 1 0.09829 0.59997 0.10028 1.0000
Ar29 Ar 1 0.84997 0.65171 0.14972 1.0000
Ar30 Ar 1 0.15003 0.34829 0.85028 1.0000
Ar31 Ar 1 0.65003 0.34829 0.64972 1.0000
Ar32 Ar 1 0.34997 0.65171 0.35028 1.0000
B1 B 1 0.37810 0.00000 0.25000 1.0000
B2 B 1 0.62190 0.00000 0.75000 1.0000
B3 B 1 0.12190 0.00000 0.75000 1.0000
B4 B 1 0.87810 0.00000 0.25000 1.0000
B5 B 1 0.25000 0.12810 0.50000 1.0000
B6 B 1 0.75000 0.87190 0.50000 1.0000
B7 B 1 0.25000 0.87190 0.00000 1.0000
B8 B 1 0.75000 0.12810 0.00000 1.0000
B9 B 1 0.87810 0.50000 0.75000 1.0000
B10 B 1 0.12190 0.50000 0.25000 1.0000
B11 B 1 0.62190 0.50000 0.25000 1.0000
B12 B 1 0.37810 0.50000 0.75000 1.0000
B13 B 1 0.75000 0.62810 0.00000 1.0000
B14 B 1 0.25000 0.37190 0.00000 1.0000
B15 B 1 0.75000 0.37190 0.50000 1.0000
B16 B 1 0.25000 0.62810 0.50000 1.0000
B17 B 1 0.35270 0.10270 0.87500 1.0000
B18 B 1 0.64730 0.89730 0.12500 1.0000
B19 B 1 0.14730 0.89730 0.37500 1.0000
B20 B 1 0.85270 0.10270 0.62500 1.0000
B21 B 1 0.14730 0.10270 0.12500 1.0000
B22 B 1 0.85270 0.89730 0.87500 1.0000
B23 B 1 0.35270 0.89730 0.62500 1.0000
B24 B 1 0.64730 0.10270 0.37500 1.0000
B25 B 1 0.85270 0.60270 0.37500 1.0000
B26 B 1 0.14730 0.39730 0.62500 1.0000
B27 B 1 0.64730 0.39730 0.87500 1.0000
B28 B 1 0.35270 0.60270 0.12500 1.0000
B29 B 1 0.64730 0.60270 0.62500 1.0000
B30 B 1 0.35270 0.39730 0.37500 1.0000
B31 B 1 0.85270 0.39730 0.12500 1.0000
B32 B 1 0.14730 0.60270 0.87500 1.0000
B33 B 1 0.36360 0.21880 0.16940 1.0000
B34 B 1 0.63640 0.78120 0.83060 1.0000
B35 B 1 0.13640 0.78120 0.66940 1.0000
B36 B 1 0.86360 0.21880 0.33060 1.0000
B37 B 1 0.03120 0.11360 0.41940 1.0000
B38 B 1 0.96880 0.88640 0.58060 1.0000
B39 B 1 0.46880 0.88640 0.91940 1.0000
B40 B 1 0.53120 0.11360 0.08060 1.0000
B41 B 1 0.13640 0.21880 0.83060 1.0000
B42 B 1 0.86360 0.78120 0.16940 1.0000
B43 B 1 0.36360 0.78120 0.33060 1.0000
B44 B 1 0.63640 0.21880 0.66940 1.0000
B45 B 1 0.46880 0.11360 0.58060 1.0000
B46 B 1 0.53120 0.88640 0.41940 1.0000
B47 B 1 0.03120 0.88640 0.08060 1.0000
B48 B 1 0.96880 0.11360 0.91940 1.0000
B49 B 1 0.86360 0.71880 0.66940 1.0000
B50 B 1 0.13640 0.28120 0.33060 1.0000
B51 B 1 0.63640 0.28120 0.16940 1.0000
B52 B 1 0.36360 0.71880 0.83060 1.0000
B53 B 1 0.53120 0.61360 0.91940 1.0000
B54 B 1 0.46880 0.38640 0.08060 1.0000
B55 B 1 0.96880 0.38640 0.41940 1.0000
B56 B 1 0.03120 0.61360 0.58060 1.0000
B57 B 1 0.63640 0.71880 0.33060 1.0000
B58 B 1 0.36360 0.28120 0.66940 1.0000
B59 B 1 0.86360 0.28120 0.83060 1.0000
B60 B 1 0.13640 0.71880 0.16940 1.0000
B61 B 1 0.96880 0.61360 0.08060 1.0000
B62 B 1 0.03120 0.38640 0.91940 1.0000
B63 B 1 0.53120 0.38640 0.58060 1.0000
B64 B 1 0.46880 0.61360 0.41940 1.0000
#End of data_38_GITTAF

data_39_VEJZIU
_chemical_name_common		'ZIF10 '
_chemical_formula_structural	'Zn(Im)2'
_chemical_formula_sum		'Ar1 B2'
_citation_special_details	'original source structure doi: 10.1073/pnas.0602439103'
;
File: VEJZIU.cif.
;
_cell_length_a			8.86804
_cell_length_b			8.86804
_cell_length_c			6.35950
_cell_angle_alpha		90.00000
_cell_angle_beta		90.00000
_cell_angle_gamma		90.00000
_cell_volume			500.12542
_cell_formula_units_Z		32
_symmetry_space_group_name_H-M	'P 1'
_symmetry_Int_Tables_number	1
loop_
_symmetry_equiv_pos_site_id
_symmetry_equiv_pos_as_xyz
1 x,y,z
loop_
_atom_site_label
_atom_site_type_symbol
_atom_site_symmetry_multiplicity
_atom_site_fract_x
_atom_site_fract_y
_atom_site_fract_z
_atom_site_occupancy
Ar1 Ar 1 0.26787 0.11096 0.15461 1.0000
Ar2 Ar 1 0.73213 0.88904 0.84539 1.0000
Ar3 Ar 1 0.73213 0.88904 0.15461 1.0000
Ar4 Ar 1 0.26787 0.11096 0.84539 1.0000
Ar5 Ar 1 0.88904 0.26787 0.15461 1.0000
Ar6 Ar 1 0.11096 0.73213 0.84539 1.0000
Ar7 Ar 1 0.11096 0.73213 0.15461 1.0000
Ar8 Ar 1 0.88904 0.26787 0.84539 1.0000
Ar9 Ar 1 0.73213 0.11096 0.84539 1.0000
Ar10 Ar 1 0.26787 0.88904 0.15461 1.0000
Ar11 Ar 1 0.26787 0.88904 0.84539 1.0000
Ar12 Ar 1 0.73213 0.11096 0.15461 1.0000
Ar13 Ar 1 0.11096 0.26787 0.84539 1.0000
Ar14 Ar 1 0.88904 0.73213 0.15461 1.0000
Ar15 Ar 1 0.88904 0.73213 0.84539 1.0000
Ar16 Ar 1 0.11096 0.26787 0.15461 1.0000
Ar17 Ar 1 0.76787 0.61096 0.65461 1.0000
Ar18 Ar 1 0.23213 0.38904 0.34539 1.0000
Ar19 Ar 1 0.23213 0.38904 0.65461 1.0000
Ar20 Ar 1 0.76787 0.61096 0.34539 1.0000
Ar21 Ar 1 0.38904 0.76787 0.65461 1.0000
Ar22 Ar 1 0.61096 0.23213 0.34539 1.0000
Ar23 Ar 1 0.61096 0.23213 0.65461 1.0000
Ar24 Ar 1 0.38904 0.76787 0.34539 1.0000
Ar25 Ar 1 0.23213 0.61096 0.34539 1.0000
Ar26 Ar 1 0.76787 0.38904 0.65461 1.0000
Ar27 Ar 1 0.76787 0.38904 0.34539 1.0000
Ar28 Ar 1 0.23213 0.61096 0.65461 1.0000
Ar29 Ar 1 0.61096 0.76787 0.34539 1.0000
Ar30 Ar 1 0.38904 0.23213 0.65461 1.0000
Ar31 Ar 1 0.38904 0.23213 0.34539 1.0000
Ar32 Ar 1 0.61096 0.76787 0.65461 1.0000
B1 B 1 0.34710 0.15290 0.25000 1.0000
B2 B 1 0.65290 0.84710 0.75000 1.0000
B3 B 1 0.65290 0.84710 0.25000 1.0000
B4 B 1 0.34710 0.15290 0.75000 1.0000
B5 B 1 0.84710 0.34710 0.25000 1.0000
B6 B 1 0.15290 0.65290 0.75000 1.0000
B7 B 1 0.15290 0.65290 0.25000 1.0000
B8 B 1 0.84710 0.34710 0.75000 1.0000
B9 B 1 0.65290 0.15290 0.75000 1.0000
B10 B 1 0.34710 0.84710 0.25000 1.0000
B11 B 1 0.34710 0.84710 0.75000 1.0000
B12 B 1 0.65290 0.15290 0.25000 1.0000
B13 B 1 0.15290 0.34710 0.75000 1.0000
B14 B 1 0.84710 0.65290 0.25000 1.0000
B15 B 1 0.84710 0.65290 0.75000 1.0000
B16 B 1 0.15290 0.34710 0.25000 1.0000
B17 B 1 0.18260 0.18260 0.18320 1.0000
B18 B 1 0.81740 0.81740 0.81680 1.0000
B19 B 1 0.81740 0.81740 0.18320 1.0000
B20 B 1 0.18260 0.18260 0.81680 1.0000
B21 B 1 0.81740 0.18260 0.18320 1.0000
B22 B 1 0.18260 0.81740 0.81680 1.0000
B23 B 1 0.18260 0.81740 0.18320 1.0000
B24 B 1 0.81740 0.18260 0.81680 1.0000
B25 B 1 0.68260 0.68260 0.68320 1.0000
B26 B 1 0.31740 0.31740 0.31680 1.0000
B27 B 1 0.31740 0.31740 0.68320 1.0000
B28 B 1 0.68260 0.68260 0.31680 1.0000
B29 B 1 0.31740 0.68260 0.68320 1.0000
B30 B 1 0.68260 0.31740 0.31680 1.0000
B31 B 1 0.68260 0.31740 0.68320 1.0000
B32 B 1 0.31740 0.68260 0.31680 1.0000
B33 B 1 0.24880 0.00000 0.16680 1.0000
B34 B 1 0.75120 1.00000 0.83320 1.0000
B35 B 1 0.75120 1.00000 0.16680 1.0000
B36 B 1 0.24880 0.00000 0.83320 1.0000
B37 B 1 1.00000 0.24880 0.16680 1.0000
B38 B 1 0.00000 0.75120 0.83320 1.0000
B39 B 1 0.00000 0.75120 0.16680 1.0000
B40 B 1 1.00000 0.24880 0.83320 1.0000
B41 B 1 0.74880 0.50000 0.66680 1.0000
B42 B 1 0.25120 0.50000 0.33320 1.0000
B43 B 1 0.25120 0.50000 0.66680 1.0000
B44 B 1 0.74880 0.50000 0.33320 1.0000
B45 B 1 0.50000 0.74880 0.66680 1.0000
B46 B 1 0.50000 0.25120 0.33320 1.0000
B47 B 1 0.50000 0.25120 0.66680 1.0000
B48 B 1 0.50000 0.74880 0.33320 1.0000
B49 B 1 0.28610 0.12330 0.00000 1.0000
B50 B 1 0.71390 0.87670 0.00000 1.0000
B51 B 1 0.87670 0.28610 0.00000 1.0000
B52 B 1 0.12330 0.71390 0.00000 1.0000
B53 B 1 0.71390 0.12330 0.00000 1.0000
B54 B 1 0.28610 0.87670 0.00000 1.0000
B55 B 1 0.12330 0.28610 0.00000 1.0000
B56 B 1 0.87670 0.71390 0.00000 1.0000
B57 B 1 0.78610 0.62330 0.50000 1.0000
B58 B 1 0.21390 0.37670 0.50000 1.0000
B59 B 1 0.37670 0.78610 0.50000 1.0000
B60 B 1 0.62330 0.21390 0.50000 1.0000
B61 B 1 0.21390 0.62330 0.50000 1.0000
B62 B 1 0.78610 0.37670 0.50000 1.0000
B63 B 1 0.62330 0.78610 0.50000 1.0000
B64 B 1 0.37670 0.21390 0.50000 1.0000
#End of data_39_VEJZIU

data_40_AFIXES
_chemical_formula_structural	'Co5(Im)10'
_chemical_formula_sum		'Ar1 B2'
_citation_special_details	'original source structure doi: 10.1002/1521-3757(20020415)114:8<1442::AID-ANGE1442>3.0.CO;2-4'
;
File: AFIXES.cif.
;
_cell_length_a			8.06659
_cell_length_b			3.16668
_cell_length_c			8.21264
_cell_angle_alpha		90.00000
_cell_angle_beta		90.96000
_cell_angle_gamma		90.00000
_cell_volume			209.75719
_cell_formula_units_Z		20
_symmetry_space_group_name_H-M	'P 1'
_symmetry_Int_Tables_number	1
loop_
_symmetry_equiv_pos_site_id
_symmetry_equiv_pos_as_xyz
1 x,y,z
loop_
_atom_site_label
_atom_site_type_symbol
_atom_site_symmetry_multiplicity
_atom_site_fract_x
_atom_site_fract_y
_atom_site_fract_z
_atom_site_occupancy
Ar1 Ar 1 0.73421 0.04144 0.31973 1.0000
Ar2 Ar 1 0.26579 0.95856 0.68027 1.0000
Ar3 Ar 1 0.76579 0.54144 0.18027 1.0000
Ar4 Ar 1 0.23421 0.45856 0.81973 1.0000
Ar5 Ar 1 0.83926 0.67542 0.48294 1.0000
Ar6 Ar 1 0.16074 0.32458 0.51706 1.0000
Ar7 Ar 1 0.66074 0.17542 0.01706 1.0000
Ar8 Ar 1 0.33926 0.82458 0.98294 1.0000
Ar9 Ar 1 0.03040 0.73115 0.63850 1.0000
Ar10 Ar 1 0.96960 0.26885 0.36150 1.0000
Ar11 Ar 1 0.46960 0.23115 0.86150 1.0000
Ar12 Ar 1 0.53040 0.76885 0.13850 1.0000
Ar13 Ar 1 0.01404 0.23736 0.77838 1.0000
Ar14 Ar 1 0.98596 0.76264 0.22162 1.0000
Ar15 Ar 1 0.48596 0.73736 0.72162 1.0000
Ar16 Ar 1 0.51404 0.26264 0.27838 1.0000
Ar17 Ar 1 0.71525 0.53406 0.68354 1.0000
Ar18 Ar 1 0.28475 0.46594 0.31646 1.0000
Ar19 Ar 1 0.78475 0.03406 0.81646 1.0000
Ar20 Ar 1 0.21525 0.96594 0.18354 1.0000
B1 B 1 0.62252 0.18255 0.33073 1.0000
B2 B 1 0.37748 0.81745 0.66926 1.0000
B3 B 1 0.87748 0.68255 0.16926 1.0000
B4 B 1 0.12252 0.31745 0.83073 1.0000
B5 B 1 0.72322 0.76105 0.25841 1.0000
B6 B 1 0.27678 0.23895 0.74158 1.0000
B7 B 1 0.77678 0.26105 0.24158 1.0000
B8 B 1 0.22321 0.73895 0.75842 1.0000
B9 B 1 0.79197 0.92165 0.41886 1.0000
B10 B 1 0.20803 0.07835 0.58114 1.0000
B11 B 1 0.70803 0.42165 0.08114 1.0000
B12 B 1 0.29197 0.57835 0.91886 1.0000
B13 B 1 0.94706 0.73650 0.54463 1.0000
B14 B 1 0.05294 0.26350 0.45536 1.0000
B15 B 1 0.55294 0.23650 0.95536 1.0000
B16 B 1 0.44705 0.76350 0.04464 1.0000
B17 B 1 0.12246 0.54570 0.59587 1.0000
B18 B 1 0.87754 0.45430 0.40413 1.0000
B19 B 1 0.37754 0.04570 0.90412 1.0000
B20 B 1 0.62246 0.95430 0.09588 1.0000
B21 B 1 0.04369 0.01240 0.69550 1.0000
B22 B 1 0.95631 0.98760 0.30450 1.0000
B23 B 1 0.45631 0.51240 0.80450 1.0000
B24 B 1 0.54369 0.48760 0.19550 1.0000
B25 B 1 0.99413 0.51240 0.71817 1.0000
B26 B 1 0.00587 0.48760 0.28183 1.0000
B27 B 1 0.50587 0.01240 0.78183 1.0000
B28 B 1 0.49413 0.98760 0.21817 1.0000
B29 B 1 0.77217 0.54715 0.57464 1.0000
B30 B 1 0.22783 0.45285 0.42535 1.0000
B31 B 1 0.72783 0.04715 0.92535 1.0000
B32 B 1 0.27217 0.95285 0.07465 1.0000
B33 B 1 0.59436 0.62620 0.67798 1.0000
B34 B 1 0.40564 0.37380 0.32202 1.0000
B35 B 1 0.90564 0.12620 0.82202 1.0000
B36 B 1 0.09436 0.87380 0.17798 1.0000
B37 B 1 0.72905 0.25995 0.74660 1.0000
B38 B 1 0.27095 0.74005 0.25340 1.0000
B39 B 1 0.77095 0.75995 0.75340 1.0000
B40 B 1 0.22905 0.24005 0.24660 1.0000
#End of data_40_AFIXES

data_41_MECWOH
_chemical_formula_structural	'Zn2(eIm)4'
_chemical_formula_sum		'Ar1 B2'
_citation_special_details	'original source structure doi: 10.1002/anie.200503778'
;
File: MECWOH.cif.
;
_cell_length_a			9.49237
_cell_length_b			9.49237
_cell_length_c			9.49237
_cell_angle_alpha		90.00000
_cell_angle_beta		90.00000
_cell_angle_gamma		90.00000
_cell_volume			855.30992
_cell_formula_units_Z		48
_symmetry_space_group_name_H-M	'P 1'
_symmetry_Int_Tables_number	1
loop_
_symmetry_equiv_pos_site_id
_symmetry_equiv_pos_as_xyz
1 x,y,z
loop_
_atom_site_label
_atom_site_type_symbol
_atom_site_symmetry_multiplicity
_atom_site_fract_x
_atom_site_fract_y
_atom_site_fract_z
_atom_site_occupancy
Ar1 Ar 1 0.25000 0.39625 0.10375 1.0000
Ar2 Ar 1 0.75000 0.60375 0.89624 1.0000
Ar3 Ar 1 0.75000 0.60375 0.10375 1.0000
Ar4 Ar 1 0.25000 0.39625 0.89624 1.0000
Ar5 Ar 1 0.75000 0.39625 0.89624 1.0000
Ar6 Ar 1 0.25000 0.60375 0.10375 1.0000
Ar7 Ar 1 0.25000 0.60375 0.89624 1.0000
Ar8 Ar 1 0.75000 0.39625 0.10375 1.0000
Ar9 Ar 1 0.10375 0.25000 0.39625 1.0000
Ar10 Ar 1 0.89624 0.75000 0.60375 1.0000
Ar11 Ar 1 0.10375 0.75000 0.60375 1.0000
Ar12 Ar 1 0.89624 0.25000 0.39625 1.0000
Ar13 Ar 1 0.89624 0.75000 0.39625 1.0000
Ar14 Ar 1 0.10375 0.25000 0.60375 1.0000
Ar15 Ar 1 0.89624 0.25000 0.60375 1.0000
Ar16 Ar 1 0.10375 0.75000 0.39625 1.0000
Ar17 Ar 1 0.39625 0.10375 0.25000 1.0000
Ar18 Ar 1 0.60375 0.89624 0.75000 1.0000
Ar19 Ar 1 0.60375 0.10375 0.75000 1.0000
Ar20 Ar 1 0.39625 0.89624 0.25000 1.0000
Ar21 Ar 1 0.39625 0.89624 0.75000 1.0000
Ar22 Ar 1 0.60375 0.10375 0.25000 1.0000
Ar23 Ar 1 0.60375 0.89624 0.25000 1.0000
Ar24 Ar 1 0.39625 0.10375 0.75000 1.0000
Ar25 Ar 1 0.39625 0.25000 0.89624 1.0000
Ar26 Ar 1 0.60375 0.75000 0.10375 1.0000
Ar27 Ar 1 0.60375 0.75000 0.89624 1.0000
Ar28 Ar 1 0.39625 0.25000 0.10375 1.0000
Ar29 Ar 1 0.39625 0.75000 0.10375 1.0000
Ar30 Ar 1 0.60375 0.25000 0.89624 1.0000
Ar31 Ar 1 0.60375 0.25000 0.10375 1.0000
Ar32 Ar 1 0.39625 0.75000 0.89624 1.0000
Ar33 Ar 1 0.25000 0.10375 0.60375 1.0000
Ar34 Ar 1 0.75000 0.89624 0.39625 1.0000
Ar35 Ar 1 0.75000 0.10375 0.39625 1.0000
Ar36 Ar 1 0.25000 0.89624 0.60375 1.0000
Ar37 Ar 1 0.75000 0.89624 0.60375 1.0000
Ar38 Ar 1 0.25000 0.10375 0.39625 1.0000
Ar39 Ar 1 0.25000 0.89624 0.39625 1.0000
Ar40 Ar 1 0.75000 0.10375 0.60375 1.0000
Ar41 Ar 1 0.10375 0.39625 0.75000 1.0000
Ar42 Ar 1 0.89624 0.60375 0.25000 1.0000
Ar43 Ar 1 0.10375 0.60375 0.25000 1.0000
Ar44 Ar 1 0.89624 0.39625 0.75000 1.0000
Ar45 Ar 1 0.89624 0.39625 0.25000 1.0000
Ar46 Ar 1 0.10375 0.60375 0.75000 1.0000
Ar47 Ar 1 0.89624 0.60375 0.75000 1.0000
Ar48 Ar 1 0.10375 0.39625 0.25000 1.0000
B1 B 1 0.23073 0.38610 1.00000 1.0000
B2 B 1 0.76927 0.61390 1.00000 1.0000
B3 B 1 0.76927 0.38610 1.00000 1.0000
B4 B 1 0.23073 0.61390 1.00000 1.0000
B5 B 1 1.00000 0.23073 0.38610 1.0000
B6 B 1 1.00000 0.76927 0.61390 1.0000
B7 B 1 1.00000 0.76927 0.38610 1.0000
B8 B 1 1.00000 0.23073 0.61390 1.0000
B9 B 1 0.38610 1.00000 0.23073 1.0000
B10 B 1 0.61390 1.00000 0.76927 1.0000
B11 B 1 0.38610 1.00000 0.76927 1.0000
B12 B 1 0.61390 1.00000 0.23073 1.0000
B13 B 1 0.38610 0.23073 1.00000 1.0000
B14 B 1 0.61390 0.76927 1.00000 1.0000
B15 B 1 0.38610 0.76927 1.00000 1.0000
B16 B 1 0.61390 0.23073 1.00000 1.0000
B17 B 1 0.23073 1.00000 0.61390 1.0000
B18 B 1 0.76927 1.00000 0.38610 1.0000
B19 B 1 0.76927 1.00000 0.61390 1.0000
B20 B 1 0.23073 1.00000 0.38610 1.0000
B21 B 1 1.00000 0.38610 0.76927 1.0000
B22 B 1 1.00000 0.61390 0.23073 1.0000
B23 B 1 1.00000 0.38610 0.23073 1.0000
B24 B 1 1.00000 0.61390 0.76927 1.0000
B25 B 1 0.73073 0.88610 0.50000 1.0000
B26 B 1 0.26927 0.11390 0.50000 1.0000
B27 B 1 0.26927 0.88610 0.50000 1.0000
B28 B 1 0.73073 0.11390 0.50000 1.0000
B29 B 1 0.50000 0.73073 0.88610 1.0000
B30 B 1 0.50000 0.26927 0.11390 1.0000
B31 B 1 0.50000 0.26927 0.88610 1.0000
B32 B 1 0.50000 0.73073 0.11390 1.0000
B33 B 1 0.88610 0.50000 0.73073 1.0000
B34 B 1 0.11390 0.50000 0.26927 1.0000
B35 B 1 0.88610 0.50000 0.26927 1.0000
B36 B 1 0.11390 0.50000 0.73073 1.0000
B37 B 1 0.88610 0.73073 0.50000 1.0000
B38 B 1 0.11390 0.26927 0.50000 1.0000
B39 B 1 0.88610 0.26927 0.50000 1.0000
B40 B 1 0.11390 0.73073 0.50000 1.0000
B41 B 1 0.73073 0.50000 0.11390 1.0000
B42 B 1 0.26927 0.50000 0.88610 1.0000
B43 B 1 0.26927 0.50000 0.11390 1.0000
B44 B 1 0.73073 0.50000 0.88610 1.0000
B45 B 1 0.50000 0.88610 0.26927 1.0000
B46 B 1 0.50000 0.11390 0.73073 1.0000
B47 B 1 0.50000 0.88610 0.73073 1.0000
B48 B 1 0.50000 0.11390 0.26927 1.0000
B49 B 1 0.16704 0.38172 0.16704 1.0000
B50 B 1 0.83296 0.61828 0.83296 1.0000
B51 B 1 0.83296 0.61828 0.16704 1.0000
B52 B 1 0.16704 0.38172 0.83296 1.0000
B53 B 1 0.83296 0.38172 0.83296 1.0000
B54 B 1 0.16704 0.61828 0.16704 1.0000
B55 B 1 0.16704 0.61828 0.83296 1.0000
B56 B 1 0.83296 0.38172 0.16704 1.0000
B57 B 1 0.16704 0.16704 0.38172 1.0000
B58 B 1 0.83296 0.83296 0.61828 1.0000
B59 B 1 0.16704 0.83296 0.61828 1.0000
B60 B 1 0.83296 0.16704 0.38172 1.0000
B61 B 1 0.83296 0.83296 0.38172 1.0000
B62 B 1 0.16704 0.16704 0.61828 1.0000
B63 B 1 0.83296 0.16704 0.61828 1.0000
B64 B 1 0.16704 0.83296 0.38172 1.0000
B65 B 1 0.38172 0.16704 0.16704 1.0000
B66 B 1 0.61828 0.83296 0.83296 1.0000
B67 B 1 0.61828 0.16704 0.83296 1.0000
B68 B 1 0.38172 0.83296 0.16704 1.0000
B69 B 1 0.38172 0.83296 0.83296 1.0000
B70 B 1 0.61828 0.16704 0.16704 1.0000
B71 B 1 0.61828 0.83296 0.16704 1.0000
B72 B 1 0.38172 0.16704 0.83296 1.0000
B73 B 1 0.66704 0.88172 0.66704 1.0000
B74 B 1 0.33296 0.11828 0.33296 1.0000
B75 B 1 0.33296 0.11828 0.66704 1.0000
B76 B 1 0.66704 0.88172 0.33296 1.0000
B77 B 1 0.33296 0.88172 0.33296 1.0000
B78 B 1 0.66704 0.11828 0.66704 1.0000
B79 B 1 0.66704 0.11828 0.33296 1.0000
B80 B 1 0.33296 0.88172 0.66704 1.0000
B81 B 1 0.66704 0.66704 0.88172 1.0000
B82 B 1 0.33296 0.33296 0.11828 1.0000
B83 B 1 0.66704 0.33296 0.11828 1.0000
B84 B 1 0.33296 0.66704 0.88172 1.0000
B85 B 1 0.33296 0.33296 0.88172 1.0000
B86 B 1 0.66704 0.66704 0.11828 1.0000
B87 B 1 0.33296 0.66704 0.11828 1.0000
B88 B 1 0.66704 0.33296 0.88172 1.0000
B89 B 1 0.88172 0.66704 0.66704 1.0000
B90 B 1 0.11828 0.33296 0.33296 1.0000
B91 B 1 0.11828 0.66704 0.33296 1.0000
B92 B 1 0.88172 0.33296 0.66704 1.0000
B93 B 1 0.88172 0.33296 0.33296 1.0000
B94 B 1 0.11828 0.66704 0.66704 1.0000
B95 B 1 0.11828 0.33296 0.66704 1.0000
B96 B 1 0.88172 0.66704 0.33296 1.0000
#End of data_41_MECWOH

data_42_VELVIS
_chemical_name_common		'ZIF7Â  '
_chemical_formula_structural	'Zn(bIm)2'
_chemical_formula_sum		'Ar1 B2'
_citation_special_details	'original source structure doi: 10.1073/pnas.0602439103'
;
File: VELVIS.cif.
;
_cell_length_a			7.52034
_cell_length_b			7.52034
_cell_length_c			5.15652
_cell_angle_alpha		90.00000
_cell_angle_beta		90.00000
_cell_angle_gamma		120.00000
_cell_volume			252.55862
_cell_formula_units_Z		18
_symmetry_space_group_name_H-M	'P 1'
_symmetry_Int_Tables_number	1
loop_
_symmetry_equiv_pos_site_id
_symmetry_equiv_pos_as_xyz
1 x,y,z
loop_
_atom_site_label
_atom_site_type_symbol
_atom_site_symmetry_multiplicity
_atom_site_fract_x
_atom_site_fract_y
_atom_site_fract_z
_atom_site_occupancy
Ar1 Ar 1 0.67190 0.07047 0.34160 1.0000
Ar2 Ar 1 0.32810 0.92953 0.65840 1.0000
Ar3 Ar 1 0.92953 0.60143 0.34160 1.0000
Ar4 Ar 1 0.07047 0.39857 0.65840 1.0000
Ar5 Ar 1 0.39857 0.32810 0.34160 1.0000
Ar6 Ar 1 0.60143 0.67190 0.65840 1.0000
Ar7 Ar 1 0.33857 0.40380 0.67493 1.0000
Ar8 Ar 1 0.99477 0.26286 0.99173 1.0000
Ar9 Ar 1 0.59620 0.93476 0.67493 1.0000
Ar10 Ar 1 0.73714 0.73190 0.99173 1.0000
Ar11 Ar 1 0.06524 0.66143 0.67493 1.0000
Ar12 Ar 1 0.26810 0.00523 0.99173 1.0000
Ar13 Ar 1 0.00523 0.73714 0.00827 1.0000
Ar14 Ar 1 0.66143 0.59620 0.32507 1.0000
Ar15 Ar 1 0.26286 0.26810 0.00827 1.0000
Ar16 Ar 1 0.40380 0.06524 0.32507 1.0000
Ar17 Ar 1 0.73190 0.99477 0.00827 1.0000
Ar18 Ar 1 0.93476 0.33857 0.32507 1.0000
B1 B 1 0.67007 0.99658 0.17923 1.0000
B2 B 1 0.32993 0.00342 0.82077 1.0000
B3 B 1 0.00342 0.67348 0.17923 1.0000
B4 B 1 0.99658 0.32652 0.82077 1.0000
B5 B 1 0.32652 0.32993 0.17923 1.0000
B6 B 1 0.67348 0.67007 0.82077 1.0000
B7 B 1 0.33673 0.32992 0.51257 1.0000
B8 B 1 0.99660 0.33675 0.15410 1.0000
B9 B 1 0.67008 0.00682 0.51257 1.0000
B10 B 1 0.66325 0.65985 0.15410 1.0000
B11 B 1 0.99318 0.66327 0.51257 1.0000
B12 B 1 0.34015 0.00340 0.15410 1.0000
B13 B 1 0.00340 0.66325 0.84590 1.0000
B14 B 1 0.66327 0.67008 0.48743 1.0000
B15 B 1 0.33675 0.34015 0.84590 1.0000
B16 B 1 0.32992 0.99318 0.48743 1.0000
B17 B 1 0.65985 0.99660 0.84590 1.0000
B18 B 1 0.00682 0.33673 0.48743 1.0000
B19 B 1 0.54302 0.08008 0.36178 1.0000
B20 B 1 0.45698 0.91992 0.63822 1.0000
B21 B 1 0.91992 0.46293 0.36178 1.0000
B22 B 1 0.08008 0.53707 0.63822 1.0000
B23 B 1 0.53707 0.45698 0.36178 1.0000
B24 B 1 0.46293 0.54302 0.63822 1.0000
B25 B 1 0.20968 0.41342 0.69512 1.0000
B26 B 1 0.12365 0.25325 0.97155 1.0000
B27 B 1 0.58658 0.79627 0.69512 1.0000
B28 B 1 0.74675 0.87040 0.97155 1.0000
B29 B 1 0.20373 0.79032 0.69512 1.0000
B30 B 1 0.12960 0.87635 0.97155 1.0000
B31 B 1 0.87635 0.74675 0.02845 1.0000
B32 B 1 0.79032 0.58658 0.30488 1.0000
B33 B 1 0.25325 0.12960 0.02845 1.0000
B34 B 1 0.41342 0.20373 0.30488 1.0000
B35 B 1 0.87040 0.12365 0.02845 1.0000
B36 B 1 0.79627 0.20968 0.30488 1.0000
#End of data_42_VELVIS

data_43_VEJYEP
_chemical_name_common		'ZIF1'
_chemical_formula_structural	'Zn(Im)2'
_chemical_formula_sum		'Ar1 B2'
_citation_special_details	'original source structure doi: 10.1073/pnas.0602439103'
;
File: VEJYEP.cif.
;
_cell_length_a			3.21245
_cell_length_b			5.03477
_cell_length_c			4.92594
_cell_angle_alpha		90.00000
_cell_angle_beta		98.62000
_cell_angle_gamma		90.00000
_cell_volume			78.77184
_cell_formula_units_Z		8
_symmetry_space_group_name_H-M	'P 1'
_symmetry_Int_Tables_number	1
loop_
_symmetry_equiv_pos_site_id
_symmetry_equiv_pos_as_xyz
1 x,y,z
loop_
_atom_site_label
_atom_site_type_symbol
_atom_site_symmetry_multiplicity
_atom_site_fract_x
_atom_site_fract_y
_atom_site_fract_z
_atom_site_occupancy
Ar1 Ar 1 0.45317 0.07607 0.73898 1.0000
Ar2 Ar 1 0.54683 0.92393 0.26102 1.0000
Ar3 Ar 1 0.04683 0.57607 0.76102 1.0000
Ar4 Ar 1 0.95317 0.42393 0.23898 1.0000
Ar5 Ar 1 0.58453 0.72605 0.92052 1.0000
Ar6 Ar 1 0.41547 0.27395 0.07948 1.0000
Ar7 Ar 1 0.91547 0.22605 0.57948 1.0000
Ar8 Ar 1 0.08453 0.77395 0.42052 1.0000
B1 B 1 0.54010 0.89036 0.80109 1.0000
B2 B 1 0.45990 0.10963 0.19891 1.0000
B3 B 1 0.95990 0.39036 0.69891 1.0000
B4 B 1 0.04010 0.60963 0.30109 1.0000
B5 B 1 0.85949 0.64648 0.89112 1.0000
B6 B 1 0.14051 0.35351 0.10887 1.0000
B7 B 1 0.64051 0.14649 0.60887 1.0000
B8 B 1 0.35949 0.85352 0.39112 1.0000
B9 B 1 0.14947 0.10415 0.66112 1.0000
B10 B 1 0.85053 0.89585 0.33889 1.0000
B11 B 1 0.35053 0.60415 0.83888 1.0000
B12 B 1 0.64947 0.39585 0.16112 1.0000
B13 B 1 0.47632 0.20222 0.89905 1.0000
B14 B 1 0.52367 0.79778 0.10095 1.0000
B15 B 1 0.02367 0.70222 0.60095 1.0000
B16 B 1 0.97632 0.29778 0.39905 1.0000
#End of data_43_VEJYEP

data_44_GITWEM
_chemical_name_common		'ZIF76 '
_chemical_formula_structural	'Zn(Im)(cbIm)'
_chemical_formula_sum		'Ar1 B2'
_citation_special_details	'original source structure doi: 10.1126/science.1152516'
;
File: GITWEM.cif.
;
_cell_length_a			7.62835
_cell_length_b			7.62835
_cell_length_c			7.62835
_cell_angle_alpha		90.00000
_cell_angle_beta		90.00000
_cell_angle_gamma		90.00000
_cell_volume			443.90715
_cell_formula_units_Z		24
_symmetry_space_group_name_H-M	'P 1'
_symmetry_Int_Tables_number	1
loop_
_symmetry_equiv_pos_site_id
_symmetry_equiv_pos_as_xyz
1 x,y,z
loop_
_atom_site_label
_atom_site_type_symbol
_atom_site_symmetry_multiplicity
_atom_site_fract_x
_atom_site_fract_y
_atom_site_fract_z
_atom_site_occupancy
Ar1 Ar 1 0.81651 0.36843 0.00017 1.0000
Ar2 Ar 1 0.00017 0.81651 0.36843 1.0000
Ar3 Ar 1 0.36843 0.00017 0.81651 1.0000
Ar4 Ar 1 0.63157 0.81651 0.99983 1.0000
Ar5 Ar 1 0.18349 0.00017 0.63157 1.0000
Ar6 Ar 1 0.99983 0.36843 0.18349 1.0000
Ar7 Ar 1 0.81651 0.63157 0.99983 1.0000
Ar8 Ar 1 0.00017 0.18349 0.63157 1.0000
Ar9 Ar 1 0.36843 0.99983 0.18349 1.0000
Ar10 Ar 1 0.63157 0.18349 0.00017 1.0000
Ar11 Ar 1 0.18349 0.99983 0.36843 1.0000
Ar12 Ar 1 0.99983 0.63157 0.81651 1.0000
Ar13 Ar 1 0.18349 0.36843 0.99983 1.0000
Ar14 Ar 1 0.99983 0.81651 0.63157 1.0000
Ar15 Ar 1 0.63157 0.00017 0.18349 1.0000
Ar16 Ar 1 0.36843 0.81651 0.00017 1.0000
Ar17 Ar 1 0.81651 0.00017 0.36843 1.0000
Ar18 Ar 1 0.00017 0.36843 0.81651 1.0000
Ar19 Ar 1 0.18349 0.63157 0.00017 1.0000
Ar20 Ar 1 0.99983 0.18349 0.36843 1.0000
Ar21 Ar 1 0.63157 0.99983 0.81651 1.0000
Ar22 Ar 1 0.36843 0.18349 0.99983 1.0000
Ar23 Ar 1 0.81651 0.99983 0.63157 1.0000
Ar24 Ar 1 0.00017 0.63157 0.18349 1.0000
B1 B 1 0.70330 0.29670 0.99440 1.0000
B2 B 1 0.99440 0.70330 0.29670 1.0000
B3 B 1 0.29670 0.99440 0.70330 1.0000
B4 B 1 0.70330 0.70330 0.00560 1.0000
B5 B 1 0.00560 0.29670 0.29670 1.0000
B6 B 1 0.99440 0.29670 0.70330 1.0000
B7 B 1 0.29670 0.00560 0.29670 1.0000
B8 B 1 0.00560 0.70330 0.70330 1.0000
B9 B 1 0.29670 0.29670 0.00560 1.0000
B10 B 1 0.70330 0.99440 0.29670 1.0000
B11 B 1 0.29670 0.70330 0.99440 1.0000
B12 B 1 0.70330 0.00560 0.70330 1.0000
B13 B 1 0.89707 0.35680 0.10292 1.0000
B14 B 1 0.10292 0.89707 0.35680 1.0000
B15 B 1 0.35680 0.10293 0.89707 1.0000
B16 B 1 0.64320 0.89708 0.89707 1.0000
B17 B 1 0.10292 0.10293 0.64320 1.0000
B18 B 1 0.89707 0.64320 0.89707 1.0000
B19 B 1 0.35680 0.89707 0.10292 1.0000
B20 B 1 0.64320 0.10292 0.10292 1.0000
B21 B 1 0.10292 0.35680 0.89707 1.0000
B22 B 1 0.89707 0.89707 0.64320 1.0000
B23 B 1 0.89707 0.10293 0.35680 1.0000
B24 B 1 0.10292 0.64320 0.10292 1.0000
B25 B 1 0.80415 0.50000 1.00000 1.0000
B26 B 1 0.00000 0.80415 0.50000 1.0000
B27 B 1 0.50000 0.00000 0.80415 1.0000
B28 B 1 0.50000 0.80415 0.00000 1.0000
B29 B 1 0.19585 0.00000 0.50000 1.0000
B30 B 1 0.00000 0.50000 0.19585 1.0000
B31 B 1 1.00000 0.19585 0.50000 1.0000
B32 B 1 0.50000 1.00000 0.19585 1.0000
B33 B 1 0.50000 0.19585 1.00000 1.0000
B34 B 1 0.00000 0.50000 0.80415 1.0000
B35 B 1 0.19585 0.50000 0.00000 1.0000
B36 B 1 0.80415 0.00000 0.50000 1.0000
B37 B 1 0.90072 0.34430 0.90072 1.0000
B38 B 1 0.90072 0.90072 0.34430 1.0000
B39 B 1 0.34430 0.90072 0.90073 1.0000
B40 B 1 0.65570 0.90072 0.09927 1.0000
B41 B 1 0.09927 0.90073 0.65570 1.0000
B42 B 1 0.09927 0.34430 0.09927 1.0000
B43 B 1 0.90072 0.65570 0.09927 1.0000
B44 B 1 0.90072 0.09928 0.65570 1.0000
B45 B 1 0.34430 0.09927 0.09927 1.0000
B46 B 1 0.65570 0.09927 0.90072 1.0000
B47 B 1 0.09927 0.09927 0.34430 1.0000
B48 B 1 0.09928 0.65570 0.90072 1.0000
#End of data_44_GITWEM

data_45_GITVAH
_chemical_name_common		'ZIF69Â  '
_chemical_formula_structural	'Zn(cbIm)(nIm)'
_chemical_formula_sum		'Ar1 B2'
_citation_special_details	'original source structure doi: 10.1126/science.1152516'
;
File: GITVAH.cif.
;
_cell_length_a			8.52271
_cell_length_b			8.52271
_cell_length_c			6.34145
_cell_angle_alpha		90.00000
_cell_angle_beta		90.00000
_cell_angle_gamma		120.00000
_cell_volume			398.91003
_cell_formula_units_Z		24
_symmetry_space_group_name_H-M	'P 1'
_symmetry_Int_Tables_number	1
loop_
_symmetry_equiv_pos_site_id
_symmetry_equiv_pos_as_xyz
1 x,y,z
loop_
_atom_site_label
_atom_site_type_symbol
_atom_site_symmetry_multiplicity
_atom_site_fract_x
_atom_site_fract_y
_atom_site_fract_z
_atom_site_occupancy
Ar1 Ar 1 0.43519 0.33203 0.40422 1.0000
Ar2 Ar 1 0.56481 0.66797 0.59578 1.0000
Ar3 Ar 1 0.66797 0.10316 0.40422 1.0000
Ar4 Ar 1 0.33203 0.89684 0.59578 1.0000
Ar5 Ar 1 0.89684 0.56481 0.40422 1.0000
Ar6 Ar 1 0.10316 0.43519 0.59578 1.0000
Ar7 Ar 1 0.56481 0.66797 0.90422 1.0000
Ar8 Ar 1 0.43519 0.33203 0.09578 1.0000
Ar9 Ar 1 0.33203 0.89684 0.90422 1.0000
Ar10 Ar 1 0.66797 0.10316 0.09578 1.0000
Ar11 Ar 1 0.10316 0.43519 0.90422 1.0000
Ar12 Ar 1 0.89684 0.56481 0.09578 1.0000
Ar13 Ar 1 0.33203 0.43519 0.59578 1.0000
Ar14 Ar 1 0.66797 0.56481 0.40422 1.0000
Ar15 Ar 1 0.10316 0.66797 0.59578 1.0000
Ar16 Ar 1 0.89684 0.33203 0.40422 1.0000
Ar17 Ar 1 0.56481 0.89684 0.59578 1.0000
Ar18 Ar 1 0.43519 0.10316 0.40422 1.0000
Ar19 Ar 1 0.66797 0.56481 0.09578 1.0000
Ar20 Ar 1 0.33203 0.43519 0.90422 1.0000
Ar21 Ar 1 0.89684 0.33203 0.09578 1.0000
Ar22 Ar 1 0.10316 0.66797 0.90422 1.0000
Ar23 Ar 1 0.43519 0.10316 0.09578 1.0000
Ar24 Ar 1 0.56481 0.89684 0.90422 1.0000
B1 B 1 0.40560 0.32230 0.25000 1.0000
B2 B 1 0.59440 0.67770 0.75000 1.0000
B3 B 1 0.67770 0.08330 0.25000 1.0000
B4 B 1 0.32230 0.91670 0.75000 1.0000
B5 B 1 0.91670 0.59440 0.25000 1.0000
B6 B 1 0.08330 0.40560 0.75000 1.0000
B7 B 1 0.32230 0.40560 0.75000 1.0000
B8 B 1 0.67770 0.59440 0.25000 1.0000
B9 B 1 0.08330 0.67770 0.75000 1.0000
B10 B 1 0.91670 0.32230 0.25000 1.0000
B11 B 1 0.59440 0.91670 0.75000 1.0000
B12 B 1 0.40560 0.08330 0.25000 1.0000
B13 B 1 0.35703 0.35703 0.50000 1.0000
B14 B 1 0.64298 0.64298 0.50000 1.0000
B15 B 1 0.64298 0.00000 0.50000 1.0000
B16 B 1 0.35702 0.00000 0.50000 1.0000
B17 B 1 1.00000 0.64298 0.50000 1.0000
B18 B 1 1.00000 0.35703 0.50000 1.0000
B19 B 1 0.64298 0.64298 1.00000 1.0000
B20 B 1 0.35703 0.35703 1.00000 1.0000
B21 B 1 0.35702 0.00000 1.00000 1.0000
B22 B 1 0.64298 0.00000 1.00000 1.0000
B23 B 1 1.00000 0.35703 1.00000 1.0000
B24 B 1 1.00000 0.64298 1.00000 1.0000
B25 B 1 0.55865 0.44135 0.42970 1.0000
B26 B 1 0.44135 0.55865 0.57030 1.0000
B27 B 1 0.55865 0.11730 0.42970 1.0000
B28 B 1 0.44135 0.88270 0.57030 1.0000
B29 B 1 0.88270 0.44135 0.42970 1.0000
B30 B 1 0.11730 0.55865 0.57030 1.0000
B31 B 1 0.44135 0.55865 0.92970 1.0000
B32 B 1 0.55865 0.44135 0.07030 1.0000
B33 B 1 0.44135 0.88270 0.92970 1.0000
B34 B 1 0.55865 0.11730 0.07030 1.0000
B35 B 1 0.11730 0.55865 0.92970 1.0000
B36 B 1 0.88270 0.44135 0.07030 1.0000
B37 B 1 0.43130 0.21565 0.43960 1.0000
B38 B 1 0.56870 0.78435 0.56040 1.0000
B39 B 1 0.78435 0.21565 0.43960 1.0000
B40 B 1 0.21565 0.78435 0.56040 1.0000
B41 B 1 0.78435 0.56870 0.43960 1.0000
B42 B 1 0.21565 0.43130 0.56040 1.0000
B43 B 1 0.56870 0.78435 0.93960 1.0000
B44 B 1 0.43130 0.21565 0.06040 1.0000
B45 B 1 0.21565 0.78435 0.93960 1.0000
B46 B 1 0.78435 0.21565 0.06040 1.0000
B47 B 1 0.21565 0.43130 0.93960 1.0000
B48 B 1 0.78435 0.56870 0.06040 1.0000
#End of data_45_GITVAH

data_46_XASGON
_chemical_formula_structural	'Fe(4abIm)2'
_chemical_formula_sum		'Ar1 B2'
_citation_special_details	'original source structure doi: 10.1039/B002574G'
;
File: XASGON.cif.
;
_cell_length_a			3.09879
_cell_length_b			3.31874
_cell_length_c			4.00134
_cell_angle_alpha		90.00000
_cell_angle_beta		90.00000
_cell_angle_gamma		90.00000
_cell_volume			41.15017
_cell_formula_units_Z		4
_symmetry_space_group_name_H-M	'P 1'
_symmetry_Int_Tables_number	1
loop_
_symmetry_equiv_pos_site_id
_symmetry_equiv_pos_as_xyz
1 x,y,z
loop_
_atom_site_label
_atom_site_type_symbol
_atom_site_symmetry_multiplicity
_atom_site_fract_x
_atom_site_fract_y
_atom_site_fract_z
_atom_site_occupancy
Ar1 Ar 1 0.44858 0.67069 0.63145 1.0000
Ar2 Ar 1 0.05142 0.32931 0.13145 1.0000
Ar3 Ar 1 0.55142 0.17069 0.86855 1.0000
Ar4 Ar 1 0.94858 0.82931 0.36855 1.0000
B1 B 1 0.66690 0.72020 0.45050 1.0000
B2 B 1 0.83310 0.27980 0.95050 1.0000
B3 B 1 0.33310 0.22020 0.04950 1.0000
B4 B 1 0.16690 0.77980 0.54950 1.0000
B5 B 1 0.55650 0.88720 0.78385 1.0000
B6 B 1 0.94350 0.11280 0.28385 1.0000
B7 B 1 0.44350 0.38720 0.71615 1.0000
B8 B 1 0.05650 0.61280 0.21615 1.0000
#End of data_46_XASGON

data_47_WOJGEI
_chemical_name_common		'ZIF90'
_chemical_formula_structural	'Zn(Ica)2'
_chemical_formula_sum		'Ar1 B2'
_citation_special_details	'original source structure doi: 10.1021/ja805222x'
;
File: WOJGEI.cif.
;
_cell_length_a			5.54723
_cell_length_b			5.54723
_cell_length_c			5.54723
_cell_angle_alpha		90.00000
_cell_angle_beta		90.00000
_cell_angle_gamma		90.00000
_cell_volume			170.69825
_cell_formula_units_Z		12
_symmetry_space_group_name_H-M	'P 1'
_symmetry_Int_Tables_number	1
loop_
_symmetry_equiv_pos_site_id
_symmetry_equiv_pos_as_xyz
1 x,y,z
loop_
_atom_site_label
_atom_site_type_symbol
_atom_site_symmetry_multiplicity
_atom_site_fract_x
_atom_site_fract_y
_atom_site_fract_z
_atom_site_occupancy
Ar1 Ar 1 0.00000 0.50000 0.25000 1.0000
Ar2 Ar 1 0.00000 0.50000 0.75000 1.0000
Ar3 Ar 1 0.25000 0.00000 0.50000 1.0000
Ar4 Ar 1 0.75000 0.00000 0.50000 1.0000
Ar5 Ar 1 0.50000 0.25000 0.00000 1.0000
Ar6 Ar 1 0.50000 0.75000 0.00000 1.0000
Ar7 Ar 1 0.50000 0.00000 0.25000 1.0000
Ar8 Ar 1 0.50000 0.00000 0.75000 1.0000
Ar9 Ar 1 0.00000 0.25000 0.50000 1.0000
Ar10 Ar 1 0.00000 0.75000 0.50000 1.0000
Ar11 Ar 1 0.25000 0.50000 0.00000 1.0000
Ar12 Ar 1 0.75000 0.50000 0.00000 1.0000
B1 B 1 0.86490 0.46770 0.13510 1.0000
B2 B 1 0.13510 0.53230 0.13510 1.0000
B3 B 1 0.13510 0.46770 0.86490 1.0000
B4 B 1 0.86490 0.53230 0.86490 1.0000
B5 B 1 0.13510 0.86490 0.46770 1.0000
B6 B 1 0.13510 0.13510 0.53230 1.0000
B7 B 1 0.86490 0.13510 0.46770 1.0000
B8 B 1 0.86490 0.86490 0.53230 1.0000
B9 B 1 0.46770 0.13510 0.86490 1.0000
B10 B 1 0.53230 0.13510 0.13510 1.0000
B11 B 1 0.46770 0.86490 0.13510 1.0000
B12 B 1 0.53230 0.86490 0.86490 1.0000
B13 B 1 0.36490 0.96770 0.63510 1.0000
B14 B 1 0.63510 0.03230 0.63510 1.0000
B15 B 1 0.63510 0.96770 0.36490 1.0000
B16 B 1 0.36490 0.03230 0.36490 1.0000
B17 B 1 0.63510 0.36490 0.96770 1.0000
B18 B 1 0.63510 0.63510 0.03230 1.0000
B19 B 1 0.36490 0.63510 0.96770 1.0000
B20 B 1 0.36490 0.36490 0.03230 1.0000
B21 B 1 0.96770 0.63510 0.36490 1.0000
B22 B 1 0.03230 0.63510 0.63510 1.0000
B23 B 1 0.96770 0.36490 0.63510 1.0000
B24 B 1 0.03230 0.36490 0.36490 1.0000
#End of data_47_WOJGEI

data_48_YOZCEW
_chemical_name_common		'ZIF82Â  '
_chemical_formula_structural	'Zn(cnIm)(nIm)'
_chemical_formula_sum		'Ar1 B2'
_citation_special_details	'original source structure doi: 10.1021/ja809459e'
;
File: YOZCEW.cif.
;
_cell_length_a			8.61176
_cell_length_b			8.61176
_cell_length_c			6.17829
_cell_angle_alpha		90.00000
_cell_angle_beta		90.00000
_cell_angle_gamma		120.00000
_cell_volume			396.81030
_cell_formula_units_Z		24
_symmetry_space_group_name_H-M	'P 1'
_symmetry_Int_Tables_number	1
loop_
_symmetry_equiv_pos_site_id
_symmetry_equiv_pos_as_xyz
1 x,y,z
loop_
_atom_site_label
_atom_site_type_symbol
_atom_site_symmetry_multiplicity
_atom_site_fract_x
_atom_site_fract_y
_atom_site_fract_z
_atom_site_occupancy
Ar1 Ar 1 0.10599 0.43877 0.40927 1.0000
Ar2 Ar 1 0.89401 0.56123 0.59073 1.0000
Ar3 Ar 1 0.56123 0.66722 0.40927 1.0000
Ar4 Ar 1 0.43877 0.33278 0.59073 1.0000
Ar5 Ar 1 0.33278 0.89401 0.40927 1.0000
Ar6 Ar 1 0.66722 0.10599 0.59073 1.0000
Ar7 Ar 1 0.89401 0.56123 0.90927 1.0000
Ar8 Ar 1 0.10599 0.43877 0.09073 1.0000
Ar9 Ar 1 0.43877 0.33278 0.90927 1.0000
Ar10 Ar 1 0.56123 0.66722 0.09073 1.0000
Ar11 Ar 1 0.66722 0.10599 0.90927 1.0000
Ar12 Ar 1 0.33278 0.89401 0.09073 1.0000
Ar13 Ar 1 0.43877 0.10599 0.59073 1.0000
Ar14 Ar 1 0.56123 0.89401 0.40927 1.0000
Ar15 Ar 1 0.66722 0.56123 0.59073 1.0000
Ar16 Ar 1 0.33278 0.43877 0.40927 1.0000
Ar17 Ar 1 0.89401 0.33278 0.59073 1.0000
Ar18 Ar 1 0.10599 0.66722 0.40927 1.0000
Ar19 Ar 1 0.56123 0.89401 0.09073 1.0000
Ar20 Ar 1 0.43877 0.10599 0.90927 1.0000
Ar21 Ar 1 0.33278 0.43877 0.09073 1.0000
Ar22 Ar 1 0.66722 0.56123 0.90927 1.0000
Ar23 Ar 1 0.10599 0.66722 0.09073 1.0000
Ar24 Ar 1 0.89401 0.33278 0.90927 1.0000
B1 B 1 0.08333 0.41500 0.25000 1.0000
B2 B 1 0.91667 0.58500 0.75000 1.0000
B3 B 1 0.58500 0.66833 0.25000 1.0000
B4 B 1 0.41500 0.33167 0.75000 1.0000
B5 B 1 0.33167 0.91667 0.25000 1.0000
B6 B 1 0.66833 0.08333 0.75000 1.0000
B7 B 1 0.41500 0.08333 0.75000 1.0000
B8 B 1 0.58500 0.91667 0.25000 1.0000
B9 B 1 0.66833 0.58500 0.75000 1.0000
B10 B 1 0.33167 0.41500 0.25000 1.0000
B11 B 1 0.91667 0.33167 0.75000 1.0000
B12 B 1 0.08333 0.66833 0.25000 1.0000
B13 B 1 0.00000 0.35695 0.50000 1.0000
B14 B 1 0.00000 0.64305 0.50000 1.0000
B15 B 1 0.64305 0.64305 0.50000 1.0000
B16 B 1 0.35695 0.35695 0.50000 1.0000
B17 B 1 0.35695 1.00000 0.50000 1.0000
B18 B 1 0.64305 1.00000 0.50000 1.0000
B19 B 1 0.00000 0.64305 1.00000 1.0000
B20 B 1 0.00000 0.35695 1.00000 1.0000
B21 B 1 0.35695 0.35695 1.00000 1.0000
B22 B 1 0.64305 0.64305 1.00000 1.0000
B23 B 1 0.64305 1.00000 1.00000 1.0000
B24 B 1 0.35695 1.00000 1.00000 1.0000
B25 B 1 0.21740 0.43480 0.44380 1.0000
B26 B 1 0.78260 0.56520 0.55620 1.0000
B27 B 1 0.56520 0.78260 0.44380 1.0000
B28 B 1 0.43480 0.21740 0.55620 1.0000
B29 B 1 0.21740 0.78260 0.44380 1.0000
B30 B 1 0.78260 0.21740 0.55620 1.0000
B31 B 1 0.78260 0.56520 0.94380 1.0000
B32 B 1 0.21740 0.43480 0.05620 1.0000
B33 B 1 0.43480 0.21740 0.94380 1.0000
B34 B 1 0.56520 0.78260 0.05620 1.0000
B35 B 1 0.78260 0.21740 0.94380 1.0000
B36 B 1 0.21740 0.78260 0.05620 1.0000
B37 B 1 0.11610 0.55805 0.43980 1.0000
B38 B 1 0.88390 0.44195 0.56020 1.0000
B39 B 1 0.44195 0.55805 0.43980 1.0000
B40 B 1 0.55805 0.44195 0.56020 1.0000
B41 B 1 0.44195 0.88390 0.43980 1.0000
B42 B 1 0.55805 0.11610 0.56020 1.0000
B43 B 1 0.88390 0.44195 0.93980 1.0000
B44 B 1 0.11610 0.55805 0.06020 1.0000
B45 B 1 0.55805 0.44195 0.93980 1.0000
B46 B 1 0.44195 0.55805 0.06020 1.0000
B47 B 1 0.55805 0.11610 0.93980 1.0000
B48 B 1 0.44195 0.88390 0.06020 1.0000
#End of data_48_YOZCEW

data_49_NAFGOR01
_chemical_formula_structural	'Co(Im)2'
_chemical_formula_sum		'Ar1 B2'
_citation_special_details	'original source structure doi: 10.1021/ic049713z'
;
File: NAFGOR01.cif.
;
_cell_length_a			3.23380
_cell_length_b			5.05056
_cell_length_c			4.91886
_cell_angle_alpha		90.00000
_cell_angle_beta		98.90400
_cell_angle_gamma		90.00000
_cell_volume			79.36920
_cell_formula_units_Z		8
_symmetry_space_group_name_H-M	'P 1'
_symmetry_Int_Tables_number	1
loop_
_symmetry_equiv_pos_site_id
_symmetry_equiv_pos_as_xyz
1 x,y,z
loop_
_atom_site_label
_atom_site_type_symbol
_atom_site_symmetry_multiplicity
_atom_site_fract_x
_atom_site_fract_y
_atom_site_fract_z
_atom_site_occupancy
Ar1 Ar 1 0.45232 0.07697 0.23726 1.0000
Ar2 Ar 1 0.54768 0.92303 0.76274 1.0000
Ar3 Ar 1 0.04768 0.57697 0.26274 1.0000
Ar4 Ar 1 0.95232 0.42303 0.73726 1.0000
Ar5 Ar 1 0.91435 0.22689 0.08115 1.0000
Ar6 Ar 1 0.08565 0.77311 0.91885 1.0000
Ar7 Ar 1 0.58565 0.72689 0.41885 1.0000
Ar8 Ar 1 0.41435 0.27311 0.58115 1.0000
B1 B 1 0.14905 0.10595 0.16110 1.0000
B2 B 1 0.85095 0.89405 0.83890 1.0000
B3 B 1 0.35095 0.60595 0.33890 1.0000
B4 B 1 0.64905 0.39405 0.66110 1.0000
B5 B 1 0.63935 0.14905 0.10830 1.0000
B6 B 1 0.36065 0.85095 0.89170 1.0000
B7 B 1 0.86065 0.64905 0.39170 1.0000
B8 B 1 0.13935 0.35095 0.60830 1.0000
B9 B 1 0.54000 0.89120 0.29900 1.0000
B10 B 1 0.46000 0.10880 0.70100 1.0000
B11 B 1 0.96000 0.39120 0.20100 1.0000
B12 B 1 0.04000 0.60880 0.79900 1.0000
B13 B 1 0.47565 0.20170 0.40080 1.0000
B14 B 1 0.52435 0.79830 0.59920 1.0000
B15 B 1 0.02435 0.70170 0.09920 1.0000
B16 B 1 0.97565 0.29830 0.90080 1.0000
#End of data_49_NAFGOR01

data_50_IMIDZB
_chemical_formula_structural	'Zn(Im)2'
_chemical_formula_sum		'Ar1 B2'
_citation_special_details	'original source structure doi: 10.1002/zaac.19804640117'
;
File: IMIDZB.cif.
;
_cell_length_a			7.80196
_cell_length_b			7.80196
_cell_length_c			4.14038
_cell_angle_alpha		90.00000
_cell_angle_beta		90.00000
_cell_angle_gamma		90.00000
_cell_volume			252.02759
_cell_formula_units_Z		32
_symmetry_space_group_name_H-M	'P 1'
_symmetry_Int_Tables_number	1
loop_
_symmetry_equiv_pos_site_id
_symmetry_equiv_pos_as_xyz
1 x,y,z
loop_
_atom_site_label
_atom_site_type_symbol
_atom_site_symmetry_multiplicity
_atom_site_fract_x
_atom_site_fract_y
_atom_site_fract_z
_atom_site_occupancy
Ar1 Ar 1 0.35170 0.09660 0.27290 1.0000
Ar2 Ar 1 0.14830 0.40340 0.77290 1.0000
Ar3 Ar 1 0.90340 0.85170 0.52290 1.0000
Ar4 Ar 1 0.59660 0.64830 0.02290 1.0000
Ar5 Ar 1 0.35170 0.90340 0.77290 1.0000
Ar6 Ar 1 0.14830 0.59660 0.27290 1.0000
Ar7 Ar 1 0.90340 0.14830 0.02290 1.0000
Ar8 Ar 1 0.59660 0.35170 0.52290 1.0000
Ar9 Ar 1 0.85170 0.59660 0.77290 1.0000
Ar10 Ar 1 0.64830 0.90340 0.27290 1.0000
Ar11 Ar 1 0.40340 0.35170 0.02290 1.0000
Ar12 Ar 1 0.09660 0.14830 0.52290 1.0000
Ar13 Ar 1 0.85170 0.40340 0.27290 1.0000
Ar14 Ar 1 0.64830 0.09660 0.77290 1.0000
Ar15 Ar 1 0.40340 0.64830 0.52290 1.0000
Ar16 Ar 1 0.09660 0.85170 0.02290 1.0000
Ar17 Ar 1 0.39930 0.85010 0.22720 1.0000
Ar18 Ar 1 0.10070 0.64990 0.72720 1.0000
Ar19 Ar 1 0.14990 0.89930 0.47720 1.0000
Ar20 Ar 1 0.35010 0.60070 0.97720 1.0000
Ar21 Ar 1 0.39930 0.14990 0.72720 1.0000
Ar22 Ar 1 0.10070 0.35010 0.22720 1.0000
Ar23 Ar 1 0.14990 0.10070 0.97720 1.0000
Ar24 Ar 1 0.35010 0.39930 0.47720 1.0000
Ar25 Ar 1 0.89930 0.35010 0.72720 1.0000
Ar26 Ar 1 0.60070 0.14990 0.22720 1.0000
Ar27 Ar 1 0.64990 0.39930 0.97720 1.0000
Ar28 Ar 1 0.85010 0.10070 0.47720 1.0000
Ar29 Ar 1 0.89930 0.64990 0.22720 1.0000
Ar30 Ar 1 0.60070 0.85010 0.72720 1.0000
Ar31 Ar 1 0.64990 0.60070 0.47720 1.0000
Ar32 Ar 1 0.85010 0.89930 0.97720 1.0000
B1 B 1 0.35830 0.96760 0.29950 1.0000
B2 B 1 0.14170 0.53240 0.79950 1.0000
B3 B 1 0.03240 0.85830 0.54950 1.0000
B4 B 1 0.46760 0.64170 0.04950 1.0000
B5 B 1 0.35830 0.03240 0.79950 1.0000
B6 B 1 0.14170 0.46760 0.29950 1.0000
B7 B 1 0.03240 0.14170 0.04950 1.0000
B8 B 1 0.46760 0.35830 0.54950 1.0000
B9 B 1 0.85830 0.46760 0.79950 1.0000
B10 B 1 0.64170 0.03240 0.29950 1.0000
B11 B 1 0.53240 0.35830 0.04950 1.0000
B12 B 1 0.96760 0.14170 0.54950 1.0000
B13 B 1 0.85830 0.53240 0.29950 1.0000
B14 B 1 0.64170 0.96760 0.79950 1.0000
B15 B 1 0.53240 0.64170 0.54950 1.0000
B16 B 1 0.96760 0.85830 0.04950 1.0000
B17 B 1 0.25335 0.12160 0.12010 1.0000
B18 B 1 0.24665 0.37840 0.62010 1.0000
B19 B 1 0.87840 0.75335 0.37010 1.0000
B20 B 1 0.62160 0.74665 0.87010 1.0000
B21 B 1 0.25335 0.87840 0.62010 1.0000
B22 B 1 0.24665 0.62160 0.12010 1.0000
B23 B 1 0.87840 0.24665 0.87010 1.0000
B24 B 1 0.62160 0.25335 0.37010 1.0000
B25 B 1 0.75335 0.62160 0.62010 1.0000
B26 B 1 0.74665 0.87840 0.12010 1.0000
B27 B 1 0.37840 0.25335 0.87010 1.0000
B28 B 1 0.12160 0.24665 0.37010 1.0000
B29 B 1 0.75335 0.37840 0.12010 1.0000
B30 B 1 0.74665 0.12160 0.62010 1.0000
B31 B 1 0.37840 0.74665 0.37010 1.0000
B32 B 1 0.12160 0.75335 0.87010 1.0000
B33 B 1 0.35355 0.14705 0.50165 1.0000
B34 B 1 0.14645 0.35295 0.00165 1.0000
B35 B 1 0.85295 0.85355 0.75165 1.0000
B36 B 1 0.64705 0.64645 0.25165 1.0000
B37 B 1 0.35355 0.85295 0.00165 1.0000
B38 B 1 0.14645 0.64705 0.50165 1.0000
B39 B 1 0.85295 0.14645 0.25165 1.0000
B40 B 1 0.64705 0.35355 0.75165 1.0000
B41 B 1 0.85355 0.64705 0.00165 1.0000
B42 B 1 0.64645 0.85295 0.50165 1.0000
B43 B 1 0.35295 0.35355 0.25165 1.0000
B44 B 1 0.14705 0.14645 0.75165 1.0000
B45 B 1 0.85355 0.35295 0.50165 1.0000
B46 B 1 0.64645 0.14705 0.00165 1.0000
B47 B 1 0.35295 0.64645 0.75165 1.0000
B48 B 1 0.14705 0.85355 0.25165 1.0000
B49 B 1 0.47255 0.12955 0.20265 1.0000
B50 B 1 0.02745 0.37045 0.70265 1.0000
B51 B 1 0.87045 0.97255 0.45265 1.0000
B52 B 1 0.62955 0.52745 0.95265 1.0000
B53 B 1 0.47255 0.87045 0.70265 1.0000
B54 B 1 0.02745 0.62955 0.20265 1.0000
B55 B 1 0.87045 0.02745 0.95265 1.0000
B56 B 1 0.62955 0.47255 0.45265 1.0000
B57 B 1 0.97255 0.62955 0.70265 1.0000
B58 B 1 0.52745 0.87045 0.20265 1.0000
B59 B 1 0.37045 0.47255 0.95265 1.0000
B60 B 1 0.12955 0.02745 0.45265 1.0000
B61 B 1 0.97255 0.37045 0.20265 1.0000
B62 B 1 0.52745 0.12955 0.70265 1.0000
B63 B 1 0.37045 0.52745 0.45265 1.0000
B64 B 1 0.12955 0.97255 0.95265 1.0000
#End of data_50_IMIDZB

data_51_EQOCES
_chemical_formula_structural	'Co(Im)2'
_chemical_formula_sum		'Ar1 B2'
_citation_special_details	'original source structure doi: 10.1002/chem.200304957'
;
File: EQOCES.cif.
;
_cell_length_a			5.79452
_cell_length_b			9.10365
_cell_length_c			2.98384
_cell_angle_alpha		90.00000
_cell_angle_beta		90.00000
_cell_angle_gamma		90.00000
_cell_volume			157.40125
_cell_formula_units_Z		16
_symmetry_space_group_name_H-M	'P 1'
_symmetry_Int_Tables_number	1
loop_
_symmetry_equiv_pos_site_id
_symmetry_equiv_pos_as_xyz
1 x,y,z
loop_
_atom_site_label
_atom_site_type_symbol
_atom_site_symmetry_multiplicity
_atom_site_fract_x
_atom_site_fract_y
_atom_site_fract_z
_atom_site_occupancy
Ar1 Ar 1 0.78504 0.06302 0.68559 1.0000
Ar2 Ar 1 0.21496 0.93698 0.68559 1.0000
Ar3 Ar 1 0.03504 0.18698 0.93559 1.0000
Ar4 Ar 1 0.46496 0.31302 0.93559 1.0000
Ar5 Ar 1 0.78504 0.56302 0.18559 1.0000
Ar6 Ar 1 0.21496 0.43698 0.18559 1.0000
Ar7 Ar 1 0.03504 0.68698 0.43559 1.0000
Ar8 Ar 1 0.46496 0.81302 0.43559 1.0000
Ar9 Ar 1 0.28504 0.06302 0.18559 1.0000
Ar10 Ar 1 0.71496 0.93698 0.18559 1.0000
Ar11 Ar 1 0.53504 0.18698 0.43559 1.0000
Ar12 Ar 1 0.96496 0.31302 0.43559 1.0000
Ar13 Ar 1 0.28504 0.56302 0.68559 1.0000
Ar14 Ar 1 0.71496 0.43698 0.68559 1.0000
Ar15 Ar 1 0.53504 0.68698 0.93559 1.0000
Ar16 Ar 1 0.96496 0.81302 0.93559 1.0000
B1 B 1 0.68075 0.13314 0.51845 1.0000
B2 B 1 0.31925 0.86686 0.51845 1.0000
B3 B 1 0.93075 0.11686 0.76845 1.0000
B4 B 1 0.56925 0.38314 0.76845 1.0000
B5 B 1 0.68075 0.63314 0.01845 1.0000
B6 B 1 0.31925 0.36686 0.01845 1.0000
B7 B 1 0.93075 0.61686 0.26845 1.0000
B8 B 1 0.56925 0.88314 0.26845 1.0000
B9 B 1 0.18075 0.13314 0.01845 1.0000
B10 B 1 0.81925 0.86686 0.01845 1.0000
B11 B 1 0.43075 0.11686 0.26845 1.0000
B12 B 1 0.06925 0.38314 0.26845 1.0000
B13 B 1 0.18075 0.63314 0.51845 1.0000
B14 B 1 0.81925 0.36686 0.51845 1.0000
B15 B 1 0.43075 0.61686 0.76845 1.0000
B16 B 1 0.06925 0.88314 0.76845 1.0000
B17 B 1 0.78055 0.97945 0.46720 1.0000
B18 B 1 0.21945 0.02055 0.46720 1.0000
B19 B 1 0.03055 0.27055 0.71720 1.0000
B20 B 1 0.46945 0.22945 0.71720 1.0000
B21 B 1 0.78055 0.47945 0.96720 1.0000
B22 B 1 0.21945 0.52055 0.96720 1.0000
B23 B 1 0.03055 0.77055 0.21720 1.0000
B24 B 1 0.46945 0.72945 0.21720 1.0000
B25 B 1 0.28055 0.97945 0.96720 1.0000
B26 B 1 0.71945 0.02055 0.96720 1.0000
B27 B 1 0.53055 0.27055 0.21720 1.0000
B28 B 1 0.96945 0.22945 0.21720 1.0000
B29 B 1 0.28055 0.47945 0.46720 1.0000
B30 B 1 0.71945 0.52055 0.46720 1.0000
B31 B 1 0.53055 0.77055 0.71720 1.0000
B32 B 1 0.96945 0.72945 0.71720 1.0000
#End of data_51_EQOCES

data_52_BAYPUN
_chemical_formula_structural	'Hg(Im)2'
_chemical_formula_sum		'Ar1 B2'
_citation_special_details	'original source structure doi: 10.1039/b302840b'
;
File: BAYPUN.cif.
;
_cell_length_a			4.53035
_cell_length_b			3.35590
_cell_length_c			3.04924
_cell_angle_alpha		90.00000
_cell_angle_beta		90.00000
_cell_angle_gamma		90.00000
_cell_volume			46.35886
_cell_formula_units_Z		8
_symmetry_space_group_name_H-M	'P 1'
_symmetry_Int_Tables_number	1
loop_
_symmetry_equiv_pos_site_id
_symmetry_equiv_pos_as_xyz
1 x,y,z
loop_
_atom_site_label
_atom_site_type_symbol
_atom_site_symmetry_multiplicity
_atom_site_fract_x
_atom_site_fract_y
_atom_site_fract_z
_atom_site_occupancy
Ar1 Ar 1 0.10652 0.53090 0.31146 1.0000
Ar2 Ar 1 0.89348 0.46910 0.68854 1.0000
Ar3 Ar 1 0.39348 0.46910 0.81146 1.0000
Ar4 Ar 1 0.60652 0.53090 0.18854 1.0000
Ar5 Ar 1 0.89348 0.03090 0.18854 1.0000
Ar6 Ar 1 0.10652 0.96910 0.81146 1.0000
Ar7 Ar 1 0.60652 0.96910 0.68854 1.0000
Ar8 Ar 1 0.39348 0.03090 0.31146 1.0000
B1 B 1 0.96998 0.31465 0.21269 1.0000
B2 B 1 0.03002 0.68535 0.78731 1.0000
B3 B 1 0.53002 0.68535 0.71269 1.0000
B4 B 1 0.46998 0.31465 0.28731 1.0000
B5 B 1 0.03002 0.81465 0.28731 1.0000
B6 B 1 0.96998 0.18535 0.71269 1.0000
B7 B 1 0.46998 0.18535 0.78731 1.0000
B8 B 1 0.53002 0.81465 0.21269 1.0000
B9 B 1 0.27550 0.54489 0.09427 1.0000
B10 B 1 0.72450 0.45511 0.90573 1.0000
B11 B 1 0.22450 0.45511 0.59428 1.0000
B12 B 1 0.77550 0.54489 0.40572 1.0000
B13 B 1 0.72450 0.04489 0.40572 1.0000
B14 B 1 0.27550 0.95511 0.59428 1.0000
B15 B 1 0.77550 0.95511 0.90573 1.0000
B16 B 1 0.22450 0.04489 0.09427 1.0000
#End of data_52_BAYPUN

data_53_GIZJUV
_chemical_name_common		'ZIF72 '
_chemical_formula_structural	'Zn(dcIm)2'
_chemical_formula_sum		'Ar1 B2'
_citation_special_details	'original source structure doi: 10.1126/science.1152516'
;
File: GIZJUV.cif.
;
_cell_length_a			6.40135
_cell_length_b			6.40135
_cell_length_c			6.40135
_cell_angle_alpha		90.00000
_cell_angle_beta		90.00000
_cell_angle_gamma		90.00000
_cell_volume			262.31051
_cell_formula_units_Z		24
_symmetry_space_group_name_H-M	'P 1'
_symmetry_Int_Tables_number	1
loop_
_symmetry_equiv_pos_site_id
_symmetry_equiv_pos_as_xyz
1 x,y,z
loop_
_atom_site_label
_atom_site_type_symbol
_atom_site_symmetry_multiplicity
_atom_site_fract_x
_atom_site_fract_y
_atom_site_fract_z
_atom_site_occupancy
Ar1 Ar 1 0.50000 0.25000 0.12500 1.0000
Ar2 Ar 1 0.50000 0.75000 0.87500 1.0000
Ar3 Ar 1 0.00000 0.75000 0.62500 1.0000
Ar4 Ar 1 0.00000 0.25000 0.37500 1.0000
Ar5 Ar 1 0.50000 0.75000 0.37500 1.0000
Ar6 Ar 1 0.50000 0.25000 0.62500 1.0000
Ar7 Ar 1 0.00000 0.25000 0.87500 1.0000
Ar8 Ar 1 0.00000 0.75000 0.12500 1.0000
Ar9 Ar 1 0.12500 0.50000 0.25000 1.0000
Ar10 Ar 1 0.87500 0.50000 0.75000 1.0000
Ar11 Ar 1 0.62500 0.00000 0.75000 1.0000
Ar12 Ar 1 0.37500 0.00000 0.25000 1.0000
Ar13 Ar 1 0.37500 0.50000 0.75000 1.0000
Ar14 Ar 1 0.62500 0.50000 0.25000 1.0000
Ar15 Ar 1 0.87500 0.00000 0.25000 1.0000
Ar16 Ar 1 0.12500 0.00000 0.75000 1.0000
Ar17 Ar 1 0.25000 0.12500 0.50000 1.0000
Ar18 Ar 1 0.75000 0.87500 0.50000 1.0000
Ar19 Ar 1 0.75000 0.62500 0.00000 1.0000
Ar20 Ar 1 0.25000 0.37500 0.00000 1.0000
Ar21 Ar 1 0.75000 0.37500 0.50000 1.0000
Ar22 Ar 1 0.25000 0.62500 0.50000 1.0000
Ar23 Ar 1 0.25000 0.87500 0.00000 1.0000
Ar24 Ar 1 0.75000 0.12500 0.00000 1.0000
B1 B 1 0.45948 0.12500 0.20948 1.0000
B2 B 1 0.54052 0.87500 0.79052 1.0000
B3 B 1 0.04052 0.87500 0.70948 1.0000
B4 B 1 0.95948 0.12500 0.29052 1.0000
B5 B 1 0.54052 0.62500 0.29052 1.0000
B6 B 1 0.45948 0.37500 0.70948 1.0000
B7 B 1 0.95948 0.37500 0.79052 1.0000
B8 B 1 0.04052 0.62500 0.20948 1.0000
B9 B 1 0.20948 0.45948 0.12500 1.0000
B10 B 1 0.79052 0.54052 0.87500 1.0000
B11 B 1 0.70948 0.04052 0.87500 1.0000
B12 B 1 0.29052 0.95948 0.12500 1.0000
B13 B 1 0.29052 0.54052 0.62500 1.0000
B14 B 1 0.70948 0.45948 0.37500 1.0000
B15 B 1 0.79052 0.95948 0.37500 1.0000
B16 B 1 0.20948 0.04052 0.62500 1.0000
B17 B 1 0.12500 0.20948 0.45948 1.0000
B18 B 1 0.87500 0.79052 0.54052 1.0000
B19 B 1 0.87500 0.70948 0.04052 1.0000
B20 B 1 0.12500 0.29052 0.95948 1.0000
B21 B 1 0.62500 0.29052 0.54052 1.0000
B22 B 1 0.37500 0.70948 0.45948 1.0000
B23 B 1 0.37500 0.79052 0.95948 1.0000
B24 B 1 0.62500 0.20948 0.04052 1.0000
B25 B 1 0.95948 0.62500 0.70948 1.0000
B26 B 1 0.04052 0.37500 0.29052 1.0000
B27 B 1 0.54052 0.37500 0.20948 1.0000
B28 B 1 0.45948 0.62500 0.79052 1.0000
B29 B 1 0.04052 0.12500 0.79052 1.0000
B30 B 1 0.95948 0.87500 0.20948 1.0000
B31 B 1 0.45948 0.87500 0.29052 1.0000
B32 B 1 0.54052 0.12500 0.70948 1.0000
B33 B 1 0.70948 0.95948 0.62500 1.0000
B34 B 1 0.29052 0.04052 0.37500 1.0000
B35 B 1 0.20948 0.54052 0.37500 1.0000
B36 B 1 0.79052 0.45948 0.62500 1.0000
B37 B 1 0.79052 0.04052 0.12500 1.0000
B38 B 1 0.20948 0.95948 0.87500 1.0000
B39 B 1 0.29052 0.45948 0.87500 1.0000
B40 B 1 0.70948 0.54052 0.12500 1.0000
B41 B 1 0.62500 0.70948 0.95948 1.0000
B42 B 1 0.37500 0.29052 0.04052 1.0000
B43 B 1 0.37500 0.20948 0.54052 1.0000
B44 B 1 0.62500 0.79052 0.45948 1.0000
B45 B 1 0.12500 0.79052 0.04052 1.0000
B46 B 1 0.87500 0.20948 0.95948 1.0000
B47 B 1 0.87500 0.29052 0.45948 1.0000
B48 B 1 0.12500 0.70948 0.54052 1.0000
#End of data_53_GIZJUV

data_54_GIZJOP
_chemical_name_common		'ZIF62'
_chemical_formula_structural	'Zn(Im)2'
_chemical_formula_sum		'Ar1 B2'
_citation_special_details	'original source structure doi: 10.1126/science.1152516'
;
File: GIZJOP.cif.
;
_cell_length_a			5.16333
_cell_length_b			5.16336
_cell_length_c			6.00244
_cell_angle_alpha		90.00000
_cell_angle_beta		90.00000
_cell_angle_gamma		90.00000
_cell_volume			160.02576
_cell_formula_units_Z		16
_symmetry_space_group_name_H-M	'P 1'
_symmetry_Int_Tables_number	1
loop_
_symmetry_equiv_pos_site_id
_symmetry_equiv_pos_as_xyz
1 x,y,z
loop_
_atom_site_label
_atom_site_type_symbol
_atom_site_symmetry_multiplicity
_atom_site_fract_x
_atom_site_fract_y
_atom_site_fract_z
_atom_site_occupancy
Ar1 Ar 1 0.30343 0.13921 0.59659 1.0000
Ar2 Ar 1 0.69657 0.86079 0.40341 1.0000
Ar3 Ar 1 0.19657 0.86079 0.09659 1.0000
Ar4 Ar 1 0.80343 0.13921 0.90341 1.0000
Ar5 Ar 1 0.69657 0.63921 0.90341 1.0000
Ar6 Ar 1 0.30343 0.36079 0.09659 1.0000
Ar7 Ar 1 0.80343 0.36079 0.40341 1.0000
Ar8 Ar 1 0.19657 0.63921 0.59659 1.0000
Ar9 Ar 1 0.99743 0.33501 0.68329 1.0000
Ar10 Ar 1 0.00257 0.66499 0.31671 1.0000
Ar11 Ar 1 0.50257 0.66499 0.18329 1.0000
Ar12 Ar 1 0.49743 0.33501 0.81671 1.0000
Ar13 Ar 1 0.00257 0.83501 0.81671 1.0000
Ar14 Ar 1 0.99743 0.16499 0.18329 1.0000
Ar15 Ar 1 0.49743 0.16499 0.31671 1.0000
Ar16 Ar 1 0.50257 0.83501 0.68329 1.0000
B1 B 1 0.86900 0.37050 0.56005 1.0000
B2 B 1 0.13100 0.62950 0.43995 1.0000
B3 B 1 0.63100 0.62950 0.06005 1.0000
B4 B 1 0.36900 0.37050 0.93995 1.0000
B5 B 1 0.13100 0.87050 0.93995 1.0000
B6 B 1 0.86900 0.12950 0.06005 1.0000
B7 B 1 0.36900 0.12950 0.43995 1.0000
B8 B 1 0.63100 0.87050 0.56005 1.0000
B9 B 1 0.90620 0.27205 0.82045 1.0000
B10 B 1 0.09380 0.72795 0.17955 1.0000
B11 B 1 0.59380 0.72795 0.32045 1.0000
B12 B 1 0.40620 0.27205 0.67955 1.0000
B13 B 1 0.09380 0.77205 0.67955 1.0000
B14 B 1 0.90620 0.22795 0.32045 1.0000
B15 B 1 0.40620 0.22795 0.17955 1.0000
B16 B 1 0.59380 0.77205 0.82045 1.0000
B17 B 1 0.12085 0.48395 0.67285 1.0000
B18 B 1 0.87915 0.51605 0.32715 1.0000
B19 B 1 0.37915 0.51605 0.17285 1.0000
B20 B 1 0.62085 0.48395 0.82715 1.0000
B21 B 1 0.87915 0.98395 0.82715 1.0000
B22 B 1 0.12085 0.01605 0.17285 1.0000
B23 B 1 0.62085 0.01605 0.32715 1.0000
B24 B 1 0.37915 0.98395 0.67285 1.0000
B25 B 1 0.12190 0.19955 0.62905 1.0000
B26 B 1 0.87810 0.80045 0.37095 1.0000
B27 B 1 0.37810 0.80045 0.12905 1.0000
B28 B 1 0.62190 0.19955 0.87095 1.0000
B29 B 1 0.87810 0.69955 0.87095 1.0000
B30 B 1 0.12190 0.30045 0.12905 1.0000
B31 B 1 0.62190 0.30045 0.37095 1.0000
B32 B 1 0.37810 0.69955 0.62905 1.0000
#End of data_54_GIZJOP

data_55_CUIMDZ01
_chemical_formula_structural	'Cu(Im)2'
_chemical_formula_sum		'Ar1 B2'
_citation_special_details	'original source structure doi: 10.1021/ic010384+'
;
File: CUIMDZ01.cif.
;
_cell_length_a			9.18868
_cell_length_b			9.18868
_cell_length_c			1.79613
_cell_angle_alpha		90.00000
_cell_angle_beta		90.00000
_cell_angle_gamma		120.00000
_cell_volume			131.33319
_cell_formula_units_Z		18
_symmetry_space_group_name_H-M	'P 1'
_symmetry_Int_Tables_number	1
loop_
_symmetry_equiv_pos_site_id
_symmetry_equiv_pos_as_xyz
1 x,y,z
loop_
_atom_site_label
_atom_site_type_symbol
_atom_site_symmetry_multiplicity
_atom_site_fract_x
_atom_site_fract_y
_atom_site_fract_z
_atom_site_occupancy
Ar1 Ar 1 0.21380 0.99986 0.39740 1.0000
Ar2 Ar 1 0.78620 0.00014 0.60260 1.0000
Ar3 Ar 1 0.00014 0.21394 0.39740 1.0000
Ar4 Ar 1 0.99986 0.78606 0.60260 1.0000
Ar5 Ar 1 0.78606 0.78620 0.39740 1.0000
Ar6 Ar 1 0.21394 0.21380 0.60260 1.0000
Ar7 Ar 1 0.88047 0.33319 0.73073 1.0000
Ar8 Ar 1 0.45287 0.33347 0.93593 1.0000
Ar9 Ar 1 0.66681 0.54727 0.73073 1.0000
Ar10 Ar 1 0.66653 0.11939 0.93593 1.0000
Ar11 Ar 1 0.45273 0.11953 0.73073 1.0000
Ar12 Ar 1 0.88061 0.54713 0.93593 1.0000
Ar13 Ar 1 0.54713 0.66653 0.06407 1.0000
Ar14 Ar 1 0.11953 0.66681 0.26927 1.0000
Ar15 Ar 1 0.33347 0.88061 0.06407 1.0000
Ar16 Ar 1 0.33319 0.45273 0.26927 1.0000
Ar17 Ar 1 0.11939 0.45287 0.06407 1.0000
Ar18 Ar 1 0.54727 0.88047 0.26927 1.0000
B1 B 1 0.20098 0.10170 0.40450 1.0000
B2 B 1 0.79903 0.89830 0.59550 1.0000
B3 B 1 0.89830 0.09928 0.40450 1.0000
B4 B 1 0.10170 0.90073 0.59550 1.0000
B5 B 1 0.90073 0.79903 0.40450 1.0000
B6 B 1 0.09928 0.20098 0.59550 1.0000
B7 B 1 0.86764 0.43503 0.73783 1.0000
B8 B 1 0.46569 0.23163 0.92883 1.0000
B9 B 1 0.56497 0.43261 0.73783 1.0000
B10 B 1 0.76837 0.23406 0.92883 1.0000
B11 B 1 0.56739 0.13236 0.73783 1.0000
B12 B 1 0.76594 0.53431 0.92883 1.0000
B13 B 1 0.53431 0.76837 0.07117 1.0000
B14 B 1 0.13236 0.56497 0.26217 1.0000
B15 B 1 0.23163 0.76594 0.07117 1.0000
B16 B 1 0.43503 0.56739 0.26217 1.0000
B17 B 1 0.23406 0.46569 0.07117 1.0000
B18 B 1 0.43261 0.86764 0.26217 1.0000
B19 B 1 0.33859 0.07960 0.48575 1.0000
B20 B 1 0.66141 0.92040 0.51425 1.0000
B21 B 1 0.92040 0.25899 0.48575 1.0000
B22 B 1 0.07960 0.74101 0.51425 1.0000
B23 B 1 0.74101 0.66141 0.48575 1.0000
B24 B 1 0.25899 0.33859 0.51425 1.0000
B25 B 1 0.00526 0.41293 0.81908 1.0000
B26 B 1 0.32807 0.25373 0.84758 1.0000
B27 B 1 0.58707 0.59233 0.81908 1.0000
B28 B 1 0.74627 0.07434 0.84758 1.0000
B29 B 1 0.40767 0.99474 0.81908 1.0000
B30 B 1 0.92566 0.67193 0.84758 1.0000
B31 B 1 0.67193 0.74627 0.15242 1.0000
B32 B 1 0.99474 0.58707 0.18092 1.0000
B33 B 1 0.25373 0.92566 0.15242 1.0000
B34 B 1 0.41293 0.40767 0.18092 1.0000
B35 B 1 0.07434 0.32807 0.15242 1.0000
B36 B 1 0.59233 0.00526 0.18092 1.0000
#End of data_55_CUIMDZ01

data_56_EQOCOC
_chemical_formula_structural	'Zn(Im)2'
_chemical_formula_sum		'Ar1 B2'
_citation_special_details	'original source structure doi: 10.1002/chem.200304957'
;
File: EQOCOC.cif.
;
_cell_length_a			7.78331
_cell_length_b			7.78331
_cell_length_c			4.40342
_cell_angle_alpha		90.00000
_cell_angle_beta		90.00000
_cell_angle_gamma		90.00000
_cell_volume			266.75835
_cell_formula_units_Z		32
_symmetry_space_group_name_H-M	'P 1'
_symmetry_Int_Tables_number	1
loop_
_symmetry_equiv_pos_site_id
_symmetry_equiv_pos_as_xyz
1 x,y,z
loop_
_atom_site_label
_atom_site_type_symbol
_atom_site_symmetry_multiplicity
_atom_site_fract_x
_atom_site_fract_y
_atom_site_fract_z
_atom_site_occupancy
Ar1 Ar 1 0.09413 0.35204 0.12228 1.0000
Ar2 Ar 1 0.40587 0.14796 0.62228 1.0000
Ar3 Ar 1 0.64796 0.59413 0.37228 1.0000
Ar4 Ar 1 0.85204 0.90587 0.87228 1.0000
Ar5 Ar 1 0.59413 0.85204 0.62228 1.0000
Ar6 Ar 1 0.90587 0.64796 0.12228 1.0000
Ar7 Ar 1 0.14796 0.09413 0.87228 1.0000
Ar8 Ar 1 0.35204 0.40587 0.37228 1.0000
Ar9 Ar 1 0.15845 0.60217 0.21876 1.0000
Ar10 Ar 1 0.34155 0.89783 0.71876 1.0000
Ar11 Ar 1 0.39783 0.65845 0.46876 1.0000
Ar12 Ar 1 0.10217 0.84155 0.96876 1.0000
Ar13 Ar 1 0.65845 0.10217 0.71876 1.0000
Ar14 Ar 1 0.84155 0.39783 0.21876 1.0000
Ar15 Ar 1 0.89783 0.15845 0.96876 1.0000
Ar16 Ar 1 0.60217 0.34155 0.46876 1.0000
Ar17 Ar 1 0.35021 0.60401 0.90927 1.0000
Ar18 Ar 1 0.14979 0.89599 0.40927 1.0000
Ar19 Ar 1 0.39599 0.85021 0.15927 1.0000
Ar20 Ar 1 0.10401 0.64979 0.65927 1.0000
Ar21 Ar 1 0.85021 0.10401 0.40927 1.0000
Ar22 Ar 1 0.64979 0.39599 0.90927 1.0000
Ar23 Ar 1 0.89599 0.35021 0.65927 1.0000
Ar24 Ar 1 0.60401 0.14979 0.15927 1.0000
Ar25 Ar 1 0.08634 0.20463 0.48680 1.0000
Ar26 Ar 1 0.41366 0.29537 0.98680 1.0000
Ar27 Ar 1 0.79537 0.58634 0.73680 1.0000
Ar28 Ar 1 0.70463 0.91366 0.23680 1.0000
Ar29 Ar 1 0.58634 0.70463 0.98680 1.0000
Ar30 Ar 1 0.91366 0.79537 0.48680 1.0000
Ar31 Ar 1 0.29537 0.08634 0.23680 1.0000
Ar32 Ar 1 0.20463 0.41366 0.73680 1.0000
B1 B 1 0.00985 0.30185 0.58805 1.0000
B2 B 1 0.49015 0.19815 0.08805 1.0000
B3 B 1 0.69815 0.50985 0.83805 1.0000
B4 B 1 0.80185 0.99015 0.33805 1.0000
B5 B 1 0.50985 0.80185 0.08805 1.0000
B6 B 1 0.99015 0.69815 0.58805 1.0000
B7 B 1 0.19815 0.00985 0.33805 1.0000
B8 B 1 0.30185 0.49015 0.83805 1.0000
B9 B 1 0.97795 0.12790 0.47490 1.0000
B10 B 1 0.52205 0.37210 0.97490 1.0000
B11 B 1 0.87210 0.47795 0.72490 1.0000
B12 B 1 0.62790 0.02205 0.22490 1.0000
B13 B 1 0.47795 0.62790 0.97490 1.0000
B14 B 1 0.02205 0.87210 0.47490 1.0000
B15 B 1 0.37210 0.97795 0.22490 1.0000
B16 B 1 0.12790 0.52205 0.72490 1.0000
B17 B 1 0.11505 0.25835 0.28370 1.0000
B18 B 1 0.38495 0.24165 0.78370 1.0000
B19 B 1 0.74165 0.61505 0.53370 1.0000
B20 B 1 0.75835 0.88495 0.03370 1.0000
B21 B 1 0.61505 0.75835 0.78370 1.0000
B22 B 1 0.88495 0.74165 0.28370 1.0000
B23 B 1 0.24165 0.11505 0.03370 1.0000
B24 B 1 0.25835 0.38495 0.53370 1.0000
B25 B 1 0.95845 0.36695 0.12875 1.0000
B26 B 1 0.54156 0.13305 0.62875 1.0000
B27 B 1 0.63305 0.45844 0.37875 1.0000
B28 B 1 0.86695 0.04156 0.87875 1.0000
B29 B 1 0.45844 0.86695 0.62875 1.0000
B30 B 1 0.04156 0.63305 0.12875 1.0000
B31 B 1 0.13305 0.95845 0.87875 1.0000
B32 B 1 0.36695 0.54156 0.37875 1.0000
B33 B 1 0.14965 0.34905 0.91755 1.0000
B34 B 1 0.35035 0.15095 0.41755 1.0000
B35 B 1 0.65095 0.64965 0.16755 1.0000
B36 B 1 0.84905 0.85035 0.66755 1.0000
B37 B 1 0.64965 0.84905 0.41755 1.0000
B38 B 1 0.85035 0.65095 0.91755 1.0000
B39 B 1 0.15095 0.14965 0.66755 1.0000
B40 B 1 0.34905 0.35035 0.16755 1.0000
B41 B 1 0.14270 0.46860 0.20640 1.0000
B42 B 1 0.35730 0.03140 0.70640 1.0000
B43 B 1 0.53140 0.64270 0.45640 1.0000
B44 B 1 0.96860 0.85730 0.95640 1.0000
B45 B 1 0.64270 0.96860 0.70640 1.0000
B46 B 1 0.85730 0.53140 0.20640 1.0000
B47 B 1 0.03140 0.14270 0.95640 1.0000
B48 B 1 0.46860 0.35730 0.45640 1.0000
B49 B 1 0.16060 0.64160 0.44950 1.0000
B50 B 1 0.33940 0.85840 0.94950 1.0000
B51 B 1 0.35840 0.66060 0.69950 1.0000
B52 B 1 0.14160 0.83940 0.19950 1.0000
B53 B 1 0.66060 0.14160 0.94950 1.0000
B54 B 1 0.83940 0.35840 0.44950 1.0000
B55 B 1 0.85840 0.16060 0.19950 1.0000
B56 B 1 0.64160 0.33940 0.69950 1.0000
B57 B 1 0.26435 0.63105 0.08305 1.0000
B58 B 1 0.23565 0.86895 0.58305 1.0000
B59 B 1 0.36895 0.76435 0.33305 1.0000
B60 B 1 0.13105 0.73565 0.83305 1.0000
B61 B 1 0.76435 0.13105 0.58305 1.0000
B62 B 1 0.73565 0.36895 0.08305 1.0000
B63 B 1 0.86895 0.26435 0.83305 1.0000
B64 B 1 0.63105 0.23565 0.33305 1.0000
#End of data_56_EQOCOC

data_57_IMZYCO
_chemical_formula_structural	'Co(Im)2'
_chemical_formula_sum		'Ar1 B2'
_citation_special_details	'original source structure doi: 10.1107/S0567740875007649'
;
File: IMZYCO.cif.
;
_cell_length_a			7.64024
_cell_length_b			7.64024
_cell_length_c			4.33622
_cell_angle_alpha		90.00000
_cell_angle_beta		90.00000
_cell_angle_gamma		90.00000
_cell_volume			253.11916
_cell_formula_units_Z		32
_symmetry_space_group_name_H-M	'P 1'
_symmetry_Int_Tables_number	1
loop_
_symmetry_equiv_pos_site_id
_symmetry_equiv_pos_as_xyz
1 x,y,z
loop_
_atom_site_label
_atom_site_type_symbol
_atom_site_symmetry_multiplicity
_atom_site_fract_x
_atom_site_fract_y
_atom_site_fract_z
_atom_site_occupancy
Ar1 Ar 1 0.58437 0.79906 0.33728 1.0000
Ar2 Ar 1 0.91563 0.70094 0.83728 1.0000
Ar3 Ar 1 0.20094 0.08437 0.58728 1.0000
Ar4 Ar 1 0.29906 0.41563 0.08728 1.0000
Ar5 Ar 1 0.08437 0.29906 0.83728 1.0000
Ar6 Ar 1 0.41563 0.20094 0.33728 1.0000
Ar7 Ar 1 0.70094 0.58437 0.08728 1.0000
Ar8 Ar 1 0.79906 0.91563 0.58728 1.0000
Ar9 Ar 1 0.59428 0.64999 0.69953 1.0000
Ar10 Ar 1 0.90572 0.85001 0.19953 1.0000
Ar11 Ar 1 0.35001 0.09428 0.94953 1.0000
Ar12 Ar 1 0.14999 0.40572 0.44953 1.0000
Ar13 Ar 1 0.09428 0.14999 0.19953 1.0000
Ar14 Ar 1 0.40572 0.35001 0.69953 1.0000
Ar15 Ar 1 0.85001 0.59428 0.44953 1.0000
Ar16 Ar 1 0.64999 0.90572 0.94953 1.0000
Ar17 Ar 1 0.34194 0.59921 0.59824 1.0000
Ar18 Ar 1 0.15806 0.90079 0.09824 1.0000
Ar19 Ar 1 0.40079 0.84194 0.84824 1.0000
Ar20 Ar 1 0.09921 0.65806 0.34824 1.0000
Ar21 Ar 1 0.84194 0.09921 0.09824 1.0000
Ar22 Ar 1 0.65806 0.40079 0.59824 1.0000
Ar23 Ar 1 0.90079 0.34194 0.34824 1.0000
Ar24 Ar 1 0.59921 0.15806 0.84824 1.0000
Ar25 Ar 1 0.39593 0.65107 0.15944 1.0000
Ar26 Ar 1 0.10407 0.84893 0.65944 1.0000
Ar27 Ar 1 0.34893 0.89593 0.40944 1.0000
Ar28 Ar 1 0.15107 0.60407 0.90944 1.0000
Ar29 Ar 1 0.89593 0.15107 0.65944 1.0000
Ar30 Ar 1 0.60407 0.34893 0.15944 1.0000
Ar31 Ar 1 0.84893 0.39593 0.90944 1.0000
Ar32 Ar 1 0.65107 0.10407 0.40944 1.0000
B1 B 1 0.61720 0.74370 0.53945 1.0000
B2 B 1 0.88280 0.75630 0.03945 1.0000
B3 B 1 0.25630 0.11720 0.78945 1.0000
B4 B 1 0.24370 0.38280 0.28945 1.0000
B5 B 1 0.11720 0.24370 0.03945 1.0000
B6 B 1 0.38280 0.25630 0.53945 1.0000
B7 B 1 0.75630 0.61720 0.28945 1.0000
B8 B 1 0.74370 0.88280 0.78945 1.0000
B9 B 1 0.65270 0.85220 0.16430 1.0000
B10 B 1 0.84730 0.64780 0.66430 1.0000
B11 B 1 0.14780 0.15270 0.41430 1.0000
B12 B 1 0.35220 0.34730 0.91430 1.0000
B13 B 1 0.15270 0.35220 0.66430 1.0000
B14 B 1 0.34730 0.14780 0.16430 1.0000
B15 B 1 0.64780 0.65270 0.91430 1.0000
B16 B 1 0.85220 0.84730 0.41430 1.0000
B17 B 1 0.64245 0.53345 0.61485 1.0000
B18 B 1 0.85755 0.96655 0.11485 1.0000
B19 B 1 0.46655 0.14245 0.86485 1.0000
B20 B 1 0.03345 0.35755 0.36485 1.0000
B21 B 1 0.14245 0.03345 0.11485 1.0000
B22 B 1 0.35755 0.46655 0.61485 1.0000
B23 B 1 0.96655 0.64245 0.36485 1.0000
B24 B 1 0.53345 0.85755 0.86485 1.0000
B25 B 1 0.37620 0.52375 0.10275 1.0000
B26 B 1 0.12380 0.97625 0.60275 1.0000
B27 B 1 0.47625 0.87620 0.35275 1.0000
B28 B 1 0.02375 0.62380 0.85275 1.0000
B29 B 1 0.87620 0.02375 0.60275 1.0000
B30 B 1 0.62380 0.47625 0.10275 1.0000
B31 B 1 0.97625 0.37620 0.85275 1.0000
B32 B 1 0.52375 0.12380 0.35275 1.0000
B33 B 1 0.34080 0.63915 0.37185 1.0000
B34 B 1 0.15920 0.86085 0.87185 1.0000
B35 B 1 0.36085 0.84080 0.62185 1.0000
B36 B 1 0.13915 0.65920 0.12185 1.0000
B37 B 1 0.84080 0.13915 0.87185 1.0000
B38 B 1 0.65920 0.36085 0.37185 1.0000
B39 B 1 0.86085 0.34080 0.12185 1.0000
B40 B 1 0.63915 0.15920 0.62185 1.0000
B41 B 1 0.23820 0.62945 0.73805 1.0000
B42 B 1 0.26180 0.87055 0.23805 1.0000
B43 B 1 0.37055 0.73820 0.98805 1.0000
B44 B 1 0.12945 0.76180 0.48805 1.0000
B45 B 1 0.73820 0.12945 0.23805 1.0000
B46 B 1 0.76180 0.37055 0.73805 1.0000
B47 B 1 0.87055 0.23820 0.48805 1.0000
B48 B 1 0.62945 0.26180 0.98805 1.0000
B49 B 1 0.46110 0.63280 0.69045 1.0000
B50 B 1 0.03890 0.86720 0.19045 1.0000
B51 B 1 0.36720 0.96110 0.94045 1.0000
B52 B 1 0.13280 0.53890 0.44045 1.0000
B53 B 1 0.96110 0.13280 0.19045 1.0000
B54 B 1 0.53890 0.36720 0.69045 1.0000
B55 B 1 0.86720 0.46110 0.44045 1.0000
B56 B 1 0.63280 0.03890 0.94045 1.0000
B57 B 1 0.51005 0.70275 0.23975 1.0000
B58 B 1 0.98995 0.79725 0.73975 1.0000
B59 B 1 0.29725 0.01005 0.48975 1.0000
B60 B 1 0.20275 0.48995 0.98975 1.0000
B61 B 1 0.01005 0.20275 0.73975 1.0000
B62 B 1 0.48995 0.29725 0.23975 1.0000
B63 B 1 0.79725 0.51005 0.98975 1.0000
B64 B 1 0.70275 0.98995 0.48975 1.0000
#End of data_57_IMZYCO

data_58_EGEHOO
_chemical_name_common		'usfZMOF '
_chemical_formula_structural	'In5(Imdc)10'
_chemical_formula_sum		'Ar1 B2'
_citation_special_details	'original source structure doi: 10.1002/anie.200802680'
;
File: EGEHOO.cif.
;
_cell_length_a			9.05044
_cell_length_b			9.05044
_cell_length_c			15.83460
_cell_angle_alpha		90.00000
_cell_angle_beta		90.00000
_cell_angle_gamma		90.00000
_cell_volume			1297.01977
_cell_formula_units_Z		80
_symmetry_space_group_name_H-M	'P 1'
_symmetry_Int_Tables_number	1
loop_
_symmetry_equiv_pos_site_id
_symmetry_equiv_pos_as_xyz
1 x,y,z
loop_
_atom_site_label
_atom_site_type_symbol
_atom_site_symmetry_multiplicity
_atom_site_fract_x
_atom_site_fract_y
_atom_site_fract_z
_atom_site_occupancy
Ar1 Ar 1 0.10771 0.36042 0.05195 1.0000
Ar2 Ar 1 0.89229 0.63958 0.94805 1.0000
Ar3 Ar 1 0.39229 0.63958 0.55195 1.0000
Ar4 Ar 1 0.60771 0.36042 0.44805 1.0000
Ar5 Ar 1 0.88958 0.85771 0.30195 1.0000
Ar6 Ar 1 0.11042 0.14229 0.69805 1.0000
Ar7 Ar 1 0.61042 0.14229 0.80195 1.0000
Ar8 Ar 1 0.38958 0.85771 0.19805 1.0000
Ar9 Ar 1 0.39229 0.36042 0.44805 1.0000
Ar10 Ar 1 0.60771 0.63958 0.55195 1.0000
Ar11 Ar 1 0.10771 0.63958 0.94805 1.0000
Ar12 Ar 1 0.89229 0.36042 0.05195 1.0000
Ar13 Ar 1 0.61042 0.85771 0.19805 1.0000
Ar14 Ar 1 0.38958 0.14229 0.80195 1.0000
Ar15 Ar 1 0.88958 0.14229 0.69805 1.0000
Ar16 Ar 1 0.11042 0.85771 0.30195 1.0000
Ar17 Ar 1 0.60771 0.86042 0.55195 1.0000
Ar18 Ar 1 0.39229 0.13958 0.44805 1.0000
Ar19 Ar 1 0.89229 0.13958 0.05195 1.0000
Ar20 Ar 1 0.10771 0.86042 0.94805 1.0000
Ar21 Ar 1 0.38958 0.35771 0.80195 1.0000
Ar22 Ar 1 0.61042 0.64229 0.19805 1.0000
Ar23 Ar 1 0.11042 0.64229 0.30195 1.0000
Ar24 Ar 1 0.88958 0.35771 0.69805 1.0000
Ar25 Ar 1 0.89229 0.86042 0.94805 1.0000
Ar26 Ar 1 0.10771 0.13958 0.05195 1.0000
Ar27 Ar 1 0.60771 0.13958 0.44805 1.0000
Ar28 Ar 1 0.39229 0.86042 0.55195 1.0000
Ar29 Ar 1 0.11042 0.35771 0.69805 1.0000
Ar30 Ar 1 0.88958 0.64229 0.30195 1.0000
Ar31 Ar 1 0.38958 0.64229 0.19805 1.0000
Ar32 Ar 1 0.61042 0.35771 0.80195 1.0000
Ar33 Ar 1 0.24701 0.35941 0.15044 1.0000
Ar34 Ar 1 0.75299 0.64059 0.84956 1.0000
Ar35 Ar 1 0.25299 0.64059 0.65044 1.0000
Ar36 Ar 1 0.74701 0.35941 0.34956 1.0000
Ar37 Ar 1 0.89059 0.99701 0.40044 1.0000
Ar38 Ar 1 0.10941 0.00299 0.59956 1.0000
Ar39 Ar 1 0.60941 0.00299 0.90044 1.0000
Ar40 Ar 1 0.39059 0.99701 0.09956 1.0000
Ar41 Ar 1 0.25299 0.35941 0.34956 1.0000
Ar42 Ar 1 0.74701 0.64059 0.65044 1.0000
Ar43 Ar 1 0.24701 0.64059 0.84956 1.0000
Ar44 Ar 1 0.75299 0.35941 0.15044 1.0000
Ar45 Ar 1 0.60941 0.99701 0.09956 1.0000
Ar46 Ar 1 0.39059 0.00299 0.90044 1.0000
Ar47 Ar 1 0.89059 0.00299 0.59956 1.0000
Ar48 Ar 1 0.10941 0.99701 0.40044 1.0000
Ar49 Ar 1 0.74701 0.85941 0.65044 1.0000
Ar50 Ar 1 0.25299 0.14059 0.34956 1.0000
Ar51 Ar 1 0.75299 0.14059 0.15044 1.0000
Ar52 Ar 1 0.24701 0.85941 0.84956 1.0000
Ar53 Ar 1 0.39059 0.49701 0.90044 1.0000
Ar54 Ar 1 0.60941 0.50299 0.09956 1.0000
Ar55 Ar 1 0.10941 0.50299 0.40044 1.0000
Ar56 Ar 1 0.89059 0.49701 0.59956 1.0000
Ar57 Ar 1 0.75299 0.85941 0.84956 1.0000
Ar58 Ar 1 0.24701 0.14059 0.15044 1.0000
Ar59 Ar 1 0.74701 0.14059 0.34956 1.0000
Ar60 Ar 1 0.25299 0.85941 0.65044 1.0000
Ar61 Ar 1 0.10941 0.49701 0.59956 1.0000
Ar62 Ar 1 0.89059 0.50299 0.40044 1.0000
Ar63 Ar 1 0.39059 0.50299 0.09956 1.0000
Ar64 Ar 1 0.60941 0.49701 0.90044 1.0000
Ar65 Ar 1 0.25000 0.49524 0.25000 1.0000
Ar66 Ar 1 0.75000 0.50476 0.75000 1.0000
Ar67 Ar 1 0.25000 0.50476 0.75000 1.0000
Ar68 Ar 1 0.75000 0.49524 0.25000 1.0000
Ar69 Ar 1 0.75476 0.00000 0.50000 1.0000
Ar70 Ar 1 0.24524 0.00000 0.50000 1.0000
Ar71 Ar 1 0.74524 0.00000 0.00000 1.0000
Ar72 Ar 1 0.25476 0.00000 0.00000 1.0000
Ar73 Ar 1 0.75000 0.99524 0.75000 1.0000
Ar74 Ar 1 0.25000 0.00476 0.25000 1.0000
Ar75 Ar 1 0.75000 0.00476 0.25000 1.0000
Ar76 Ar 1 0.25000 0.99524 0.75000 1.0000
Ar77 Ar 1 0.25476 0.50000 0.00000 1.0000
Ar78 Ar 1 0.74524 0.50000 0.00000 1.0000
Ar79 Ar 1 0.24524 0.50000 0.50000 1.0000
Ar80 Ar 1 0.75476 0.50000 0.50000 1.0000
B1 B 1 0.18635 0.35010 0.09735 1.0000
B2 B 1 0.81365 0.64990 0.90264 1.0000
B3 B 1 0.31365 0.64990 0.59736 1.0000
B4 B 1 0.68635 0.35010 0.40264 1.0000
B5 B 1 0.89990 0.93635 0.34736 1.0000
B6 B 1 0.10010 0.06365 0.65264 1.0000
B7 B 1 0.60010 0.06365 0.84736 1.0000
B8 B 1 0.39990 0.93635 0.15265 1.0000
B9 B 1 0.31365 0.35010 0.40264 1.0000
B10 B 1 0.68635 0.64990 0.59736 1.0000
B11 B 1 0.18635 0.64990 0.90264 1.0000
B12 B 1 0.81365 0.35010 0.09735 1.0000
B13 B 1 0.60010 0.93635 0.15265 1.0000
B14 B 1 0.39990 0.06365 0.84736 1.0000
B15 B 1 0.89990 0.06365 0.65264 1.0000
B16 B 1 0.10010 0.93635 0.34736 1.0000
B17 B 1 0.68635 0.85010 0.59736 1.0000
B18 B 1 0.31365 0.14990 0.40264 1.0000
B19 B 1 0.81365 0.14990 0.09735 1.0000
B20 B 1 0.18635 0.85010 0.90264 1.0000
B21 B 1 0.39990 0.43635 0.84736 1.0000
B22 B 1 0.60010 0.56365 0.15265 1.0000
B23 B 1 0.10010 0.56365 0.34736 1.0000
B24 B 1 0.89990 0.43635 0.65264 1.0000
B25 B 1 0.81365 0.85010 0.90264 1.0000
B26 B 1 0.18635 0.14990 0.09735 1.0000
B27 B 1 0.68635 0.14990 0.40264 1.0000
B28 B 1 0.31365 0.85010 0.59736 1.0000
B29 B 1 0.10010 0.43635 0.65264 1.0000
B30 B 1 0.89990 0.56365 0.34736 1.0000
B31 B 1 0.39990 0.56365 0.15265 1.0000
B32 B 1 0.60010 0.43635 0.84736 1.0000
B33 B 1 0.25810 0.41835 0.20429 1.0000
B34 B 1 0.74190 0.58165 0.79572 1.0000
B35 B 1 0.24190 0.58165 0.70428 1.0000
B36 B 1 0.75810 0.41835 0.29572 1.0000
B37 B 1 0.83165 0.00810 0.45428 1.0000
B38 B 1 0.16835 0.99190 0.54572 1.0000
B39 B 1 0.66835 0.99190 0.95428 1.0000
B40 B 1 0.33165 0.00810 0.04572 1.0000
B41 B 1 0.24190 0.41835 0.29572 1.0000
B42 B 1 0.75810 0.58165 0.70428 1.0000
B43 B 1 0.25810 0.58165 0.79572 1.0000
B44 B 1 0.74190 0.41835 0.20429 1.0000
B45 B 1 0.66835 0.00810 0.04572 1.0000
B46 B 1 0.33165 0.99190 0.95428 1.0000
B47 B 1 0.83165 0.99190 0.54572 1.0000
B48 B 1 0.16835 0.00810 0.45428 1.0000
B49 B 1 0.75810 0.91835 0.70428 1.0000
B50 B 1 0.24190 0.08165 0.29572 1.0000
B51 B 1 0.74190 0.08165 0.20429 1.0000
B52 B 1 0.25810 0.91835 0.79572 1.0000
B53 B 1 0.33165 0.50810 0.95428 1.0000
B54 B 1 0.66835 0.49190 0.04572 1.0000
B55 B 1 0.16835 0.49190 0.45428 1.0000
B56 B 1 0.83165 0.50810 0.54572 1.0000
B57 B 1 0.74190 0.91835 0.79572 1.0000
B58 B 1 0.25810 0.08165 0.20429 1.0000
B59 B 1 0.75810 0.08165 0.29572 1.0000
B60 B 1 0.24190 0.91835 0.70428 1.0000
B61 B 1 0.16835 0.50810 0.54572 1.0000
B62 B 1 0.83165 0.49190 0.45428 1.0000
B63 B 1 0.33165 0.49190 0.04572 1.0000
B64 B 1 0.66835 0.50810 0.95428 1.0000
B65 B 1 1.00000 0.37540 0.04077 1.0000
B66 B 1 1.00000 0.62460 0.95923 1.0000
B67 B 1 0.50000 0.62460 0.54077 1.0000
B68 B 1 0.50000 0.37540 0.45923 1.0000
B69 B 1 0.87460 0.75000 0.29077 1.0000
B70 B 1 0.12540 0.25000 0.70923 1.0000
B71 B 1 0.62540 0.25000 0.79077 1.0000
B72 B 1 0.37460 0.75000 0.20923 1.0000
B73 B 1 0.62540 0.75000 0.20923 1.0000
B74 B 1 0.37460 0.25000 0.79077 1.0000
B75 B 1 0.87460 0.25000 0.70923 1.0000
B76 B 1 0.12540 0.75000 0.29077 1.0000
B77 B 1 0.50000 0.87540 0.54077 1.0000
B78 B 1 0.50000 0.12460 0.45923 1.0000
B79 B 1 1.00000 0.12460 0.04077 1.0000
B80 B 1 1.00000 0.87540 0.95923 1.0000
B81 B 1 0.09020 0.25000 0.05654 1.0000
B82 B 1 0.90980 0.75000 0.94346 1.0000
B83 B 1 0.40980 0.75000 0.55654 1.0000
B84 B 1 0.59020 0.25000 0.44346 1.0000
B85 B 1 0.00000 0.84020 0.30654 1.0000
B86 B 1 0.00000 0.15980 0.69346 1.0000
B87 B 1 0.50000 0.15980 0.80654 1.0000
B88 B 1 0.50000 0.84020 0.19346 1.0000
B89 B 1 0.40980 0.25000 0.44346 1.0000
B90 B 1 0.59020 0.75000 0.55654 1.0000
B91 B 1 0.09020 0.75000 0.94346 1.0000
B92 B 1 0.90980 0.25000 0.05654 1.0000
B93 B 1 0.50000 0.34020 0.80654 1.0000
B94 B 1 0.50000 0.65980 0.19346 1.0000
B95 B 1 0.00000 0.65980 0.30654 1.0000
B96 B 1 0.00000 0.34020 0.69346 1.0000
B97 B 1 0.30880 0.44120 0.12500 1.0000
B98 B 1 0.69120 0.55880 0.87500 1.0000
B99 B 1 0.19120 0.55880 0.62500 1.0000
B100 B 1 0.80880 0.44120 0.37500 1.0000
B101 B 1 0.80880 0.05880 0.37500 1.0000
B102 B 1 0.19120 0.94120 0.62500 1.0000
B103 B 1 0.69120 0.94120 0.87500 1.0000
B104 B 1 0.30880 0.05880 0.12500 1.0000
B105 B 1 0.19120 0.44120 0.37500 1.0000
B106 B 1 0.80880 0.55880 0.62500 1.0000
B107 B 1 0.30880 0.55880 0.87500 1.0000
B108 B 1 0.69120 0.44120 0.12500 1.0000
B109 B 1 0.69120 0.05880 0.12500 1.0000
B110 B 1 0.30880 0.94120 0.87500 1.0000
B111 B 1 0.80880 0.94120 0.62500 1.0000
B112 B 1 0.19120 0.05880 0.37500 1.0000
B113 B 1 0.23970 0.25000 0.16024 1.0000
B114 B 1 0.76030 0.75000 0.83976 1.0000
B115 B 1 0.26030 0.75000 0.66024 1.0000
B116 B 1 0.73970 0.25000 0.33976 1.0000
B117 B 1 1.00000 0.98970 0.41024 1.0000
B118 B 1 1.00000 0.01030 0.58976 1.0000
B119 B 1 0.50000 0.01030 0.91024 1.0000
B120 B 1 0.50000 0.98970 0.08976 1.0000
B121 B 1 0.26030 0.25000 0.33976 1.0000
B122 B 1 0.73970 0.75000 0.66024 1.0000
B123 B 1 0.23970 0.75000 0.83976 1.0000
B124 B 1 0.76030 0.25000 0.16024 1.0000
B125 B 1 0.50000 0.48970 0.91024 1.0000
B126 B 1 0.50000 0.51030 0.08976 1.0000
B127 B 1 1.00000 0.51030 0.41024 1.0000
B128 B 1 1.00000 0.48970 0.58976 1.0000
B129 B 1 0.19025 0.57525 0.27895 1.0000
B130 B 1 0.80975 0.42475 0.72105 1.0000
B131 B 1 0.30975 0.42475 0.77895 1.0000
B132 B 1 0.69025 0.57525 0.22105 1.0000
B133 B 1 0.67475 0.94025 0.52896 1.0000
B134 B 1 0.32525 0.05975 0.47104 1.0000
B135 B 1 0.82525 0.05975 0.02896 1.0000
B136 B 1 0.17475 0.94025 0.97105 1.0000
B137 B 1 0.30975 0.57525 0.22105 1.0000
B138 B 1 0.69025 0.42475 0.77895 1.0000
B139 B 1 0.19025 0.42475 0.72105 1.0000
B140 B 1 0.80975 0.57525 0.27895 1.0000
B141 B 1 0.82525 0.94025 0.97105 1.0000
B142 B 1 0.17475 0.05975 0.02896 1.0000
B143 B 1 0.67475 0.05975 0.47104 1.0000
B144 B 1 0.32525 0.94025 0.52896 1.0000
B145 B 1 0.69025 0.07525 0.77895 1.0000
B146 B 1 0.30975 0.92475 0.22105 1.0000
B147 B 1 0.80975 0.92475 0.27895 1.0000
B148 B 1 0.19025 0.07525 0.72105 1.0000
B149 B 1 0.17475 0.44025 0.02896 1.0000
B150 B 1 0.82525 0.55975 0.97105 1.0000
B151 B 1 0.32525 0.55975 0.52896 1.0000
B152 B 1 0.67475 0.44025 0.47104 1.0000
B153 B 1 0.80975 0.07525 0.72105 1.0000
B154 B 1 0.19025 0.92475 0.27895 1.0000
B155 B 1 0.69025 0.92475 0.22105 1.0000
B156 B 1 0.30975 0.07525 0.77895 1.0000
B157 B 1 0.32525 0.44025 0.47104 1.0000
B158 B 1 0.67475 0.55975 0.52896 1.0000
B159 B 1 0.17475 0.55975 0.97105 1.0000
B160 B 1 0.82525 0.44025 0.02896 1.0000
#End of data_58_EGEHOO

data_59_EQOCIW
_chemical_formula_structural	'Co(Im)2'
_chemical_formula_sum		'Ar1 B2'
_citation_special_details	'original source structure doi: 10.1002/chem.200304957'
;
File: EQOCIW.cif.
;
_cell_length_a			5.86221
_cell_length_b			9.10811
_cell_length_c			2.92962
_cell_angle_alpha		90.00000
_cell_angle_beta		90.00000
_cell_angle_gamma		90.00000
_cell_volume			156.42340
_cell_formula_units_Z		16
_symmetry_space_group_name_H-M	'P 1'
_symmetry_Int_Tables_number	1
loop_
_symmetry_equiv_pos_site_id
_symmetry_equiv_pos_as_xyz
1 x,y,z
loop_
_atom_site_label
_atom_site_type_symbol
_atom_site_symmetry_multiplicity
_atom_site_fract_x
_atom_site_fract_y
_atom_site_fract_z
_atom_site_occupancy
Ar1 Ar 1 0.20942 0.06379 0.24821 1.0000
Ar2 Ar 1 0.79058 0.93621 0.24821 1.0000
Ar3 Ar 1 0.45942 0.18621 0.49821 1.0000
Ar4 Ar 1 0.04058 0.31379 0.49821 1.0000
Ar5 Ar 1 0.20942 0.56379 0.74821 1.0000
Ar6 Ar 1 0.79058 0.43621 0.74821 1.0000
Ar7 Ar 1 0.45942 0.68621 0.99821 1.0000
Ar8 Ar 1 0.04058 0.81379 0.99821 1.0000
Ar9 Ar 1 0.70942 0.06379 0.74821 1.0000
Ar10 Ar 1 0.29058 0.93621 0.74821 1.0000
Ar11 Ar 1 0.95942 0.18621 0.99821 1.0000
Ar12 Ar 1 0.54058 0.31379 0.99821 1.0000
Ar13 Ar 1 0.70942 0.56379 0.24821 1.0000
Ar14 Ar 1 0.29058 0.43621 0.24821 1.0000
Ar15 Ar 1 0.95942 0.68621 0.49821 1.0000
Ar16 Ar 1 0.54058 0.81379 0.49821 1.0000
B1 B 1 0.21940 0.97925 0.46835 1.0000
B2 B 1 0.78060 0.02075 0.46835 1.0000
B3 B 1 0.46940 0.27075 0.71835 1.0000
B4 B 1 0.03060 0.22925 0.71835 1.0000
B5 B 1 0.21940 0.47925 0.96835 1.0000
B6 B 1 0.78060 0.52075 0.96835 1.0000
B7 B 1 0.46940 0.77075 0.21835 1.0000
B8 B 1 0.03060 0.72925 0.21835 1.0000
B9 B 1 0.71940 0.97925 0.96835 1.0000
B10 B 1 0.28060 0.02075 0.96835 1.0000
B11 B 1 0.96940 0.27075 0.21835 1.0000
B12 B 1 0.53060 0.22925 0.21835 1.0000
B13 B 1 0.71940 0.47925 0.46835 1.0000
B14 B 1 0.28060 0.52075 0.46835 1.0000
B15 B 1 0.96940 0.77075 0.71835 1.0000
B16 B 1 0.53060 0.72925 0.71835 1.0000
B17 B 1 0.31200 0.13532 0.41380 1.0000
B18 B 1 0.68800 0.86468 0.41380 1.0000
B19 B 1 0.56200 0.11468 0.66380 1.0000
B20 B 1 0.93800 0.38532 0.66380 1.0000
B21 B 1 0.31200 0.63532 0.91380 1.0000
B22 B 1 0.68800 0.36468 0.91380 1.0000
B23 B 1 0.56200 0.61468 0.16380 1.0000
B24 B 1 0.93800 0.88532 0.16380 1.0000
B25 B 1 0.81200 0.13532 0.91380 1.0000
B26 B 1 0.18800 0.86468 0.91380 1.0000
B27 B 1 0.06200 0.11468 0.16380 1.0000
B28 B 1 0.43800 0.38532 0.16380 1.0000
B29 B 1 0.81200 0.63532 0.41380 1.0000
B30 B 1 0.18800 0.36468 0.41380 1.0000
B31 B 1 0.06200 0.61468 0.66380 1.0000
B32 B 1 0.43800 0.88532 0.66380 1.0000
#End of data_59_EQOCIW

data_60_GITWIQ
_chemical_name_common		'ZIF77 '
_chemical_formula_structural	'Zn(nIm)2'
_chemical_formula_sum		'Ar1 B2'
_citation_special_details	'original source structure doi: 10.1126/science.1152516'
;
File: GITWIQ.cif.
;
_cell_length_a			3.62487
_cell_length_b			7.28145
_cell_length_c			8.11617
_cell_angle_alpha		90.00000
_cell_angle_beta		90.00000
_cell_angle_gamma		90.00000
_cell_volume			214.22070
_cell_formula_units_Z		20
_symmetry_space_group_name_H-M	'P 1'
_symmetry_Int_Tables_number	1
loop_
_symmetry_equiv_pos_site_id
_symmetry_equiv_pos_as_xyz
1 x,y,z
loop_
_atom_site_label
_atom_site_type_symbol
_atom_site_symmetry_multiplicity
_atom_site_fract_x
_atom_site_fract_y
_atom_site_fract_z
_atom_site_occupancy
Ar1 Ar 1 0.71932 0.30266 0.37447 1.0000
Ar2 Ar 1 0.28068 0.69734 0.62553 1.0000
Ar3 Ar 1 0.28068 0.69734 0.37447 1.0000
Ar4 Ar 1 0.71932 0.30266 0.62553 1.0000
Ar5 Ar 1 0.78068 0.80266 0.62553 1.0000
Ar6 Ar 1 0.21932 0.19734 0.37447 1.0000
Ar7 Ar 1 0.21932 0.19734 0.62553 1.0000
Ar8 Ar 1 0.78068 0.80266 0.37447 1.0000
Ar9 Ar 1 0.21932 0.80266 0.87447 1.0000
Ar10 Ar 1 0.78068 0.19734 0.12553 1.0000
Ar11 Ar 1 0.78068 0.19734 0.87447 1.0000
Ar12 Ar 1 0.21932 0.80266 0.12553 1.0000
Ar13 Ar 1 0.28068 0.30266 0.12553 1.0000
Ar14 Ar 1 0.71932 0.69734 0.87447 1.0000
Ar15 Ar 1 0.71932 0.69734 0.12553 1.0000
Ar16 Ar 1 0.28068 0.30266 0.87447 1.0000
Ar17 Ar 1 0.50000 0.50000 0.25000 1.0000
Ar18 Ar 1 0.50000 0.50000 0.75000 1.0000
Ar19 Ar 1 0.00000 0.00000 0.75000 1.0000
Ar20 Ar 1 0.00000 0.00000 0.25000 1.0000
B1 B 1 0.66110 0.42591 0.32674 1.0000
B2 B 1 0.33890 0.57409 0.67326 1.0000
B3 B 1 0.33890 0.57409 0.32674 1.0000
B4 B 1 0.66110 0.42591 0.67326 1.0000
B5 B 1 0.83890 0.92591 0.67326 1.0000
B6 B 1 0.16110 0.07409 0.32674 1.0000
B7 B 1 0.16110 0.07409 0.67326 1.0000
B8 B 1 0.83890 0.92591 0.32674 1.0000
B9 B 1 0.16110 0.92591 0.82674 1.0000
B10 B 1 0.83890 0.07409 0.17326 1.0000
B11 B 1 0.83890 0.07409 0.82674 1.0000
B12 B 1 0.16110 0.92591 0.17326 1.0000
B13 B 1 0.33890 0.42591 0.17326 1.0000
B14 B 1 0.66110 0.57409 0.82674 1.0000
B15 B 1 0.66110 0.57409 0.17326 1.0000
B16 B 1 0.33890 0.42591 0.82674 1.0000
B17 B 1 0.70220 0.28450 0.50000 1.0000
B18 B 1 0.29780 0.71550 0.50000 1.0000
B19 B 1 0.79780 0.78450 0.50000 1.0000
B20 B 1 0.20220 0.21550 0.50000 1.0000
B21 B 1 0.20220 0.78450 0.00000 1.0000
B22 B 1 0.79780 0.21550 0.00000 1.0000
B23 B 1 0.29780 0.28450 0.00000 1.0000
B24 B 1 0.70220 0.71550 0.00000 1.0000
B25 B 1 0.47750 0.23969 0.34858 1.0000
B26 B 1 0.52250 0.76031 0.65142 1.0000
B27 B 1 0.52250 0.76031 0.34858 1.0000
B28 B 1 0.47750 0.23969 0.65142 1.0000
B29 B 1 0.02250 0.73969 0.65142 1.0000
B30 B 1 0.97750 0.26031 0.34858 1.0000
B31 B 1 0.97750 0.26031 0.65142 1.0000
B32 B 1 0.02250 0.73969 0.34858 1.0000
B33 B 1 0.97750 0.73969 0.84858 1.0000
B34 B 1 0.02250 0.26031 0.15142 1.0000
B35 B 1 0.02250 0.26031 0.84858 1.0000
B36 B 1 0.97750 0.73969 0.15142 1.0000
B37 B 1 0.52250 0.23969 0.15142 1.0000
B38 B 1 0.47750 0.76031 0.84858 1.0000
B39 B 1 0.47750 0.76031 0.15142 1.0000
B40 B 1 0.52250 0.23969 0.84858 1.0000
#End of data_60_GITWIQ

data_61_VEJYEP01
_chemical_formula_structural	'Zn(Im)2'
_chemical_formula_sum		'Ar1 B2'
_citation_special_details	'original source structure doi: 10.1002/chem.200700181'
;
File: VEJYEP01.cif.
;
_cell_length_a			3.21682
_cell_length_b			5.03738
_cell_length_c			4.93939
_cell_angle_alpha		90.00000
_cell_angle_beta		98.58400
_cell_angle_gamma		90.00000
_cell_volume			79.14284
_cell_formula_units_Z		8
_symmetry_space_group_name_H-M	'P 1'
_symmetry_Int_Tables_number	1
loop_
_symmetry_equiv_pos_site_id
_symmetry_equiv_pos_as_xyz
1 x,y,z
loop_
_atom_site_label
_atom_site_type_symbol
_atom_site_symmetry_multiplicity
_atom_site_fract_x
_atom_site_fract_y
_atom_site_fract_z
_atom_site_occupancy
Ar1 Ar 1 0.54607 0.07737 0.26127 1.0000
Ar2 Ar 1 0.45393 0.92263 0.73873 1.0000
Ar3 Ar 1 0.95393 0.57737 0.23873 1.0000
Ar4 Ar 1 0.04607 0.42263 0.76127 1.0000
Ar5 Ar 1 0.08333 0.22741 0.41965 1.0000
Ar6 Ar 1 0.91667 0.77259 0.58035 1.0000
Ar7 Ar 1 0.41667 0.72741 0.08035 1.0000
Ar8 Ar 1 0.58333 0.27259 0.91965 1.0000
B1 B 1 0.84820 0.10620 0.33860 1.0000
B2 B 1 0.15180 0.89380 0.66140 1.0000
B3 B 1 0.65180 0.60620 0.16140 1.0000
B4 B 1 0.34820 0.39380 0.83860 1.0000
B5 B 1 0.52185 0.20220 0.10020 1.0000
B6 B 1 0.47815 0.79780 0.89980 1.0000
B7 B 1 0.97815 0.70220 0.39980 1.0000
B8 B 1 0.02185 0.29780 0.60020 1.0000
B9 B 1 0.45945 0.89165 0.20015 1.0000
B10 B 1 0.54055 0.10835 0.79985 1.0000
B11 B 1 0.04055 0.39165 0.29985 1.0000
B12 B 1 0.95945 0.60835 0.70015 1.0000
B13 B 1 0.35845 0.14780 0.39155 1.0000
B14 B 1 0.64155 0.85220 0.60845 1.0000
B15 B 1 0.14155 0.64780 0.10845 1.0000
B16 B 1 0.85845 0.35220 0.89155 1.0000
#End of data_61_VEJYEP01

data_62_VELVOY
_chemical_name_common		'ZIF8Â  '
_chemical_formula_structural	'Zn(mIm)2'
_chemical_formula_sum		'Ar1 B2'
_citation_special_details	'original source structure doi: 10.1073/pnas.0602439103'
;
File: VELVOY.cif.
;
_cell_length_a			5.54536
_cell_length_b			5.54536
_cell_length_c			5.54536
_cell_angle_alpha		90.00000
_cell_angle_beta		90.00000
_cell_angle_gamma		90.00000
_cell_volume			170.52535
_cell_formula_units_Z		12
_symmetry_space_group_name_H-M	'P 1'
_symmetry_Int_Tables_number	1
loop_
_symmetry_equiv_pos_site_id
_symmetry_equiv_pos_as_xyz
1 x,y,z
loop_
_atom_site_label
_atom_site_type_symbol
_atom_site_symmetry_multiplicity
_atom_site_fract_x
_atom_site_fract_y
_atom_site_fract_z
_atom_site_occupancy
Ar1 Ar 1 0.50000 0.00000 0.75000 1.0000
Ar2 Ar 1 0.50000 0.00000 0.25000 1.0000
Ar3 Ar 1 0.75000 0.50000 0.00000 1.0000
Ar4 Ar 1 0.25000 0.50000 0.00000 1.0000
Ar5 Ar 1 0.00000 0.75000 0.50000 1.0000
Ar6 Ar 1 0.00000 0.25000 0.50000 1.0000
Ar7 Ar 1 0.00000 0.50000 0.75000 1.0000
Ar8 Ar 1 0.00000 0.50000 0.25000 1.0000
Ar9 Ar 1 0.50000 0.75000 0.00000 1.0000
Ar10 Ar 1 0.50000 0.25000 0.00000 1.0000
Ar11 Ar 1 0.75000 0.00000 0.50000 1.0000
Ar12 Ar 1 0.25000 0.00000 0.50000 1.0000
B1 B 1 0.36347 0.96832 0.63653 1.0000
B2 B 1 0.63653 0.03168 0.63653 1.0000
B3 B 1 0.63653 0.96832 0.36347 1.0000
B4 B 1 0.36347 0.03168 0.36347 1.0000
B5 B 1 0.63653 0.36347 0.96832 1.0000
B6 B 1 0.63653 0.63653 0.03168 1.0000
B7 B 1 0.36347 0.63653 0.96832 1.0000
B8 B 1 0.36347 0.36347 0.03168 1.0000
B9 B 1 0.96832 0.63653 0.36347 1.0000
B10 B 1 0.03168 0.63653 0.63653 1.0000
B11 B 1 0.96832 0.36347 0.63653 1.0000
B12 B 1 0.03168 0.36347 0.36347 1.0000
B13 B 1 0.86347 0.46832 0.13653 1.0000
B14 B 1 0.13653 0.53168 0.13653 1.0000
B15 B 1 0.13653 0.46832 0.86347 1.0000
B16 B 1 0.86347 0.53168 0.86347 1.0000
B17 B 1 0.13653 0.86347 0.46832 1.0000
B18 B 1 0.13653 0.13653 0.53168 1.0000
B19 B 1 0.86347 0.13653 0.46832 1.0000
B20 B 1 0.86347 0.86347 0.53168 1.0000
B21 B 1 0.46832 0.13653 0.86347 1.0000
B22 B 1 0.53168 0.13653 0.13653 1.0000
B23 B 1 0.46832 0.86347 0.13653 1.0000
B24 B 1 0.53168 0.86347 0.86347 1.0000
#End of data_62_VELVOY

data_63_YOZBIZ
_chemical_name_common		'ZIF78Â  '
_chemical_formula_structural	'Zn(nbIm)(nIm)'
_chemical_formula_sum		'Ar1 B2'
_citation_special_details	'original source structure doi: 10.1021/ja809459e'
;
File: YOZBIZ.cif.
;
_cell_length_a			8.52021
_cell_length_b			8.52021
_cell_length_c			6.35850
_cell_angle_alpha		90.00000
_cell_angle_beta		90.00000
_cell_angle_gamma		120.00000
_cell_volume			399.74753
_cell_formula_units_Z		24
_symmetry_space_group_name_H-M	'P 1'
_symmetry_Int_Tables_number	1
loop_
_symmetry_equiv_pos_site_id
_symmetry_equiv_pos_as_xyz
1 x,y,z
loop_
_atom_site_label
_atom_site_type_symbol
_atom_site_symmetry_multiplicity
_atom_site_fract_x
_atom_site_fract_y
_atom_site_fract_z
_atom_site_occupancy
Ar1 Ar 1 0.43548 0.33209 0.59630 1.0000
Ar2 Ar 1 0.56452 0.66791 0.40370 1.0000
Ar3 Ar 1 0.66791 0.10339 0.59630 1.0000
Ar4 Ar 1 0.33209 0.89661 0.40370 1.0000
Ar5 Ar 1 0.89661 0.56452 0.59630 1.0000
Ar6 Ar 1 0.10339 0.43548 0.40370 1.0000
Ar7 Ar 1 0.56452 0.66791 0.09630 1.0000
Ar8 Ar 1 0.43548 0.33209 0.90370 1.0000
Ar9 Ar 1 0.33209 0.89661 0.09630 1.0000
Ar10 Ar 1 0.66791 0.10339 0.90370 1.0000
Ar11 Ar 1 0.10339 0.43548 0.09630 1.0000
Ar12 Ar 1 0.89661 0.56452 0.90370 1.0000
Ar13 Ar 1 0.33209 0.43548 0.40370 1.0000
Ar14 Ar 1 0.66791 0.56452 0.59630 1.0000
Ar15 Ar 1 0.10339 0.66791 0.40370 1.0000
Ar16 Ar 1 0.89661 0.33209 0.59630 1.0000
Ar17 Ar 1 0.56452 0.89661 0.40370 1.0000
Ar18 Ar 1 0.43548 0.10339 0.59630 1.0000
Ar19 Ar 1 0.66791 0.56452 0.90370 1.0000
Ar20 Ar 1 0.33209 0.43548 0.09630 1.0000
Ar21 Ar 1 0.89661 0.33209 0.90370 1.0000
Ar22 Ar 1 0.10339 0.66791 0.09630 1.0000
Ar23 Ar 1 0.43548 0.10339 0.90370 1.0000
Ar24 Ar 1 0.56452 0.89661 0.09630 1.0000
B1 B 1 0.40490 0.32240 0.75000 1.0000
B2 B 1 0.59510 0.67760 0.25000 1.0000
B3 B 1 0.67760 0.08250 0.75000 1.0000
B4 B 1 0.32240 0.91750 0.25000 1.0000
B5 B 1 0.91750 0.59510 0.75000 1.0000
B6 B 1 0.08250 0.40490 0.25000 1.0000
B7 B 1 0.32240 0.40490 0.25000 1.0000
B8 B 1 0.67760 0.59510 0.75000 1.0000
B9 B 1 0.08250 0.67760 0.25000 1.0000
B10 B 1 0.91750 0.32240 0.75000 1.0000
B11 B 1 0.59510 0.91750 0.25000 1.0000
B12 B 1 0.40490 0.08250 0.75000 1.0000
B13 B 1 0.43160 0.21580 0.56070 1.0000
B14 B 1 0.56840 0.78420 0.43930 1.0000
B15 B 1 0.78420 0.21580 0.56070 1.0000
B16 B 1 0.21580 0.78420 0.43930 1.0000
B17 B 1 0.78420 0.56840 0.56070 1.0000
B18 B 1 0.21580 0.43160 0.43930 1.0000
B19 B 1 0.56840 0.78420 0.06070 1.0000
B20 B 1 0.43160 0.21580 0.93930 1.0000
B21 B 1 0.21580 0.78420 0.06070 1.0000
B22 B 1 0.78420 0.21580 0.93930 1.0000
B23 B 1 0.21580 0.43160 0.06070 1.0000
B24 B 1 0.78420 0.56840 0.93930 1.0000
B25 B 1 0.35745 0.35745 0.50000 1.0000
B26 B 1 0.64255 0.64255 0.50000 1.0000
B27 B 1 0.64255 0.00000 0.50000 1.0000
B28 B 1 0.35745 0.00000 0.50000 1.0000
B29 B 1 1.00000 0.64255 0.50000 1.0000
B30 B 1 0.00000 0.35745 0.50000 1.0000
B31 B 1 0.64255 0.64255 1.00000 1.0000
B32 B 1 0.35745 0.35745 1.00000 1.0000
B33 B 1 0.35745 0.00000 1.00000 1.0000
B34 B 1 0.64255 0.00000 1.00000 1.0000
B35 B 1 0.00000 0.35745 1.00000 1.0000
B36 B 1 1.00000 0.64255 1.00000 1.0000
B37 B 1 0.55658 0.44343 0.57745 1.0000
B38 B 1 0.44343 0.55658 0.42255 1.0000
B39 B 1 0.55658 0.11315 0.57745 1.0000
B40 B 1 0.44343 0.88685 0.42255 1.0000
B41 B 1 0.88685 0.44343 0.57745 1.0000
B42 B 1 0.11315 0.55658 0.42255 1.0000
B43 B 1 0.44343 0.55658 0.07745 1.0000
B44 B 1 0.55658 0.44343 0.92255 1.0000
B45 B 1 0.44343 0.88685 0.07745 1.0000
B46 B 1 0.55658 0.11315 0.92255 1.0000
B47 B 1 0.11315 0.55658 0.07745 1.0000
B48 B 1 0.88685 0.44343 0.92255 1.0000
#End of data_63_YOZBIZ

data_64_MECWIB
_chemical_name_common		'ZIF14'
_chemical_formula_structural	'Zn(eIm)2'
_chemical_formula_sum		'Ar1 B2'
_citation_special_details	'original source structure doi: 10.1002/anie.200503778'
;
File: MECWIB.cif.
;
_cell_length_a			8.59729
_cell_length_b			8.59729
_cell_length_c			8.59729
_cell_angle_alpha		90.00000
_cell_angle_beta		90.00000
_cell_angle_gamma		90.00000
_cell_volume			635.45480
_cell_formula_units_Z		48
_symmetry_space_group_name_H-M	'P 1'
_symmetry_Int_Tables_number	1
loop_
_symmetry_equiv_pos_site_id
_symmetry_equiv_pos_as_xyz
1 x,y,z
loop_
_atom_site_label
_atom_site_type_symbol
_atom_site_symmetry_multiplicity
_atom_site_fract_x
_atom_site_fract_y
_atom_site_fract_z
_atom_site_occupancy
Ar1 Ar 1 0.12500 0.83868 0.08868 1.0000
Ar2 Ar 1 0.87500 0.16132 0.91132 1.0000
Ar3 Ar 1 0.37500 0.16132 0.58868 1.0000
Ar4 Ar 1 0.62500 0.83868 0.41132 1.0000
Ar5 Ar 1 0.87500 0.33868 0.41132 1.0000
Ar6 Ar 1 0.12500 0.66132 0.58868 1.0000
Ar7 Ar 1 0.62500 0.66132 0.91132 1.0000
Ar8 Ar 1 0.37500 0.33868 0.08868 1.0000
Ar9 Ar 1 0.08868 0.12500 0.83868 1.0000
Ar10 Ar 1 0.91132 0.87500 0.16132 1.0000
Ar11 Ar 1 0.58868 0.37500 0.16132 1.0000
Ar12 Ar 1 0.41132 0.62500 0.83868 1.0000
Ar13 Ar 1 0.41132 0.87500 0.33868 1.0000
Ar14 Ar 1 0.58868 0.12500 0.66132 1.0000
Ar15 Ar 1 0.91132 0.62500 0.66132 1.0000
Ar16 Ar 1 0.08868 0.37500 0.33868 1.0000
Ar17 Ar 1 0.83868 0.08868 0.12500 1.0000
Ar18 Ar 1 0.16132 0.91132 0.87500 1.0000
Ar19 Ar 1 0.16132 0.58868 0.37500 1.0000
Ar20 Ar 1 0.83868 0.41132 0.62500 1.0000
Ar21 Ar 1 0.33868 0.41132 0.87500 1.0000
Ar22 Ar 1 0.66132 0.58868 0.12500 1.0000
Ar23 Ar 1 0.66132 0.91132 0.62500 1.0000
Ar24 Ar 1 0.33868 0.08868 0.37500 1.0000
Ar25 Ar 1 0.62500 0.33868 0.58868 1.0000
Ar26 Ar 1 0.37500 0.66132 0.41132 1.0000
Ar27 Ar 1 0.87500 0.66132 0.08868 1.0000
Ar28 Ar 1 0.12500 0.33868 0.91132 1.0000
Ar29 Ar 1 0.37500 0.83868 0.91132 1.0000
Ar30 Ar 1 0.62500 0.16132 0.08868 1.0000
Ar31 Ar 1 0.12500 0.16132 0.41132 1.0000
Ar32 Ar 1 0.87500 0.83868 0.58868 1.0000
Ar33 Ar 1 0.58868 0.62500 0.33868 1.0000
Ar34 Ar 1 0.41132 0.37500 0.66132 1.0000
Ar35 Ar 1 0.08868 0.87500 0.66132 1.0000
Ar36 Ar 1 0.91132 0.12500 0.33868 1.0000
Ar37 Ar 1 0.91132 0.37500 0.83868 1.0000
Ar38 Ar 1 0.08868 0.62500 0.16132 1.0000
Ar39 Ar 1 0.41132 0.12500 0.16132 1.0000
Ar40 Ar 1 0.58868 0.87500 0.83868 1.0000
Ar41 Ar 1 0.33868 0.58868 0.62500 1.0000
Ar42 Ar 1 0.66132 0.41132 0.37500 1.0000
Ar43 Ar 1 0.66132 0.08868 0.87500 1.0000
Ar44 Ar 1 0.33868 0.91132 0.12500 1.0000
Ar45 Ar 1 0.83868 0.91132 0.37500 1.0000
Ar46 Ar 1 0.16132 0.08868 0.62500 1.0000
Ar47 Ar 1 0.16132 0.41132 0.12500 1.0000
Ar48 Ar 1 0.83868 0.58868 0.87500 1.0000
B1 B 1 0.12667 0.86118 0.97406 1.0000
B2 B 1 0.87334 0.13882 0.02593 1.0000
B3 B 1 0.37334 0.13882 0.47407 1.0000
B4 B 1 0.62666 0.86118 0.52593 1.0000
B5 B 1 0.87334 0.36118 0.52593 1.0000
B6 B 1 0.12667 0.63883 0.47407 1.0000
B7 B 1 0.62666 0.63883 0.02593 1.0000
B8 B 1 0.37334 0.36118 0.97406 1.0000
B9 B 1 0.97406 0.12667 0.86118 1.0000
B10 B 1 0.02593 0.87334 0.13882 1.0000
B11 B 1 0.47407 0.37334 0.13882 1.0000
B12 B 1 0.52593 0.62666 0.86118 1.0000
B13 B 1 0.52593 0.87334 0.36118 1.0000
B14 B 1 0.47407 0.12667 0.63883 1.0000
B15 B 1 0.02593 0.62666 0.63883 1.0000
B16 B 1 0.97406 0.37334 0.36118 1.0000
B17 B 1 0.86118 0.97406 0.12667 1.0000
B18 B 1 0.13882 0.02593 0.87334 1.0000
B19 B 1 0.13882 0.47407 0.37334 1.0000
B20 B 1 0.86118 0.52593 0.62666 1.0000
B21 B 1 0.36118 0.52593 0.87334 1.0000
B22 B 1 0.63883 0.47407 0.12667 1.0000
B23 B 1 0.63883 0.02593 0.62666 1.0000
B24 B 1 0.36118 0.97406 0.37334 1.0000
B25 B 1 0.61118 0.37666 0.27594 1.0000
B26 B 1 0.38882 0.62334 0.72407 1.0000
B27 B 1 0.88882 0.62334 0.77593 1.0000
B28 B 1 0.11118 0.37666 0.22407 1.0000
B29 B 1 0.11118 0.12333 0.72407 1.0000
B30 B 1 0.88882 0.87667 0.27594 1.0000
B31 B 1 0.38882 0.87667 0.22407 1.0000
B32 B 1 0.61118 0.12333 0.77593 1.0000
B33 B 1 0.87667 0.22407 0.38882 1.0000
B34 B 1 0.12333 0.77593 0.61118 1.0000
B35 B 1 0.12333 0.72407 0.11118 1.0000
B36 B 1 0.87667 0.27594 0.88882 1.0000
B37 B 1 0.62334 0.77593 0.88882 1.0000
B38 B 1 0.37666 0.22407 0.11118 1.0000
B39 B 1 0.37666 0.27594 0.61118 1.0000
B40 B 1 0.62334 0.72407 0.38882 1.0000
B41 B 1 0.72407 0.11118 0.12333 1.0000
B42 B 1 0.27594 0.88882 0.87667 1.0000
B43 B 1 0.22407 0.38882 0.87667 1.0000
B44 B 1 0.77593 0.61118 0.12333 1.0000
B45 B 1 0.27594 0.61118 0.37666 1.0000
B46 B 1 0.72407 0.38882 0.62334 1.0000
B47 B 1 0.77593 0.88882 0.62334 1.0000
B48 B 1 0.22407 0.11118 0.37666 1.0000
B49 B 1 0.62666 0.36118 0.47407 1.0000
B50 B 1 0.37334 0.63883 0.52593 1.0000
B51 B 1 0.87334 0.63883 0.97406 1.0000
B52 B 1 0.12667 0.36118 0.02593 1.0000
B53 B 1 0.37334 0.86118 0.02593 1.0000
B54 B 1 0.62666 0.13882 0.97406 1.0000
B55 B 1 0.12667 0.13882 0.52593 1.0000
B56 B 1 0.87334 0.86118 0.47407 1.0000
B57 B 1 0.47407 0.62666 0.36118 1.0000
B58 B 1 0.52593 0.37334 0.63883 1.0000
B59 B 1 0.97406 0.87334 0.63883 1.0000
B60 B 1 0.02593 0.12667 0.36118 1.0000
B61 B 1 0.02593 0.37334 0.86118 1.0000
B62 B 1 0.97406 0.62666 0.13882 1.0000
B63 B 1 0.52593 0.12667 0.13882 1.0000
B64 B 1 0.47407 0.87334 0.86118 1.0000
B65 B 1 0.36118 0.47407 0.62666 1.0000
B66 B 1 0.63883 0.52593 0.37334 1.0000
B67 B 1 0.63883 0.97406 0.87334 1.0000
B68 B 1 0.36118 0.02593 0.12667 1.0000
B69 B 1 0.86118 0.02593 0.37334 1.0000
B70 B 1 0.13882 0.97406 0.62666 1.0000
B71 B 1 0.13882 0.52593 0.12667 1.0000
B72 B 1 0.86118 0.47407 0.87334 1.0000
B73 B 1 0.11118 0.87667 0.77593 1.0000
B74 B 1 0.88882 0.12333 0.22407 1.0000
B75 B 1 0.38882 0.12333 0.27594 1.0000
B76 B 1 0.61118 0.87667 0.72407 1.0000
B77 B 1 0.61118 0.62334 0.22407 1.0000
B78 B 1 0.38882 0.37666 0.77593 1.0000
B79 B 1 0.88882 0.37666 0.72407 1.0000
B80 B 1 0.11118 0.62334 0.27594 1.0000
B81 B 1 0.37666 0.72407 0.88882 1.0000
B82 B 1 0.62334 0.27594 0.11118 1.0000
B83 B 1 0.62334 0.22407 0.61118 1.0000
B84 B 1 0.37666 0.77593 0.38882 1.0000
B85 B 1 0.12333 0.27594 0.38882 1.0000
B86 B 1 0.87667 0.72407 0.61118 1.0000
B87 B 1 0.87667 0.77593 0.11118 1.0000
B88 B 1 0.12333 0.22407 0.88882 1.0000
B89 B 1 0.22407 0.61118 0.62334 1.0000
B90 B 1 0.77593 0.38882 0.37666 1.0000
B91 B 1 0.72407 0.88882 0.37666 1.0000
B92 B 1 0.27594 0.11118 0.62334 1.0000
B93 B 1 0.77593 0.11118 0.87667 1.0000
B94 B 1 0.22407 0.88882 0.12333 1.0000
B95 B 1 0.27594 0.38882 0.12333 1.0000
B96 B 1 0.72407 0.61118 0.87667 1.0000
#End of data_64_MECWIB

data_65_NAFGOR
_chemical_formula_structural	'Co(Im)2'
_chemical_formula_sum		'Ar1 B2'
_citation_special_details	'original source structure doi: 10.1021/ic049713z'
;
File: NAFGOR.cif.
;
_cell_length_a			5.02775
_cell_length_b			5.02775
_cell_length_c			6.32537
_cell_angle_alpha		90.00000
_cell_angle_beta		90.00000
_cell_angle_gamma		90.00000
_cell_volume			159.89452
_cell_formula_units_Z		16
_symmetry_space_group_name_H-M	'P 1'
_symmetry_Int_Tables_number	1
loop_
_symmetry_equiv_pos_site_id
_symmetry_equiv_pos_as_xyz
1 x,y,z
loop_
_atom_site_label
_atom_site_type_symbol
_atom_site_symmetry_multiplicity
_atom_site_fract_x
_atom_site_fract_y
_atom_site_fract_z
_atom_site_occupancy
Ar1 Ar 1 0.20110 0.11874 0.59851 1.0000
Ar2 Ar 1 0.79890 0.88126 0.40149 1.0000
Ar3 Ar 1 0.29890 0.88126 0.09851 1.0000
Ar4 Ar 1 0.70110 0.11874 0.90149 1.0000
Ar5 Ar 1 0.79890 0.61874 0.90149 1.0000
Ar6 Ar 1 0.20110 0.38126 0.09851 1.0000
Ar7 Ar 1 0.70110 0.38126 0.40149 1.0000
Ar8 Ar 1 0.29890 0.61874 0.59851 1.0000
Ar9 Ar 1 0.02112 0.19148 0.32800 1.0000
Ar10 Ar 1 0.97888 0.80852 0.67200 1.0000
Ar11 Ar 1 0.47888 0.80852 0.82800 1.0000
Ar12 Ar 1 0.52112 0.19148 0.17200 1.0000
Ar13 Ar 1 0.97888 0.69148 0.17200 1.0000
Ar14 Ar 1 0.02112 0.30852 0.82800 1.0000
Ar15 Ar 1 0.52112 0.30852 0.67200 1.0000
Ar16 Ar 1 0.47888 0.69148 0.32800 1.0000
B1 B 1 0.14455 0.13910 0.44620 1.0000
B2 B 1 0.85545 0.86090 0.55380 1.0000
B3 B 1 0.35545 0.86090 0.94620 1.0000
B4 B 1 0.64455 0.13910 0.05380 1.0000
B5 B 1 0.85545 0.63910 0.05380 1.0000
B6 B 1 0.14455 0.36090 0.94620 1.0000
B7 B 1 0.64455 0.36090 0.55380 1.0000
B8 B 1 0.35545 0.63910 0.44620 1.0000
B9 B 1 0.10660 0.24795 0.19085 1.0000
B10 B 1 0.89340 0.75205 0.80915 1.0000
B11 B 1 0.39340 0.75205 0.69085 1.0000
B12 B 1 0.60660 0.24795 0.30915 1.0000
B13 B 1 0.89340 0.74795 0.30915 1.0000
B14 B 1 0.10660 0.25205 0.69085 1.0000
B15 B 1 0.60660 0.25205 0.80915 1.0000
B16 B 1 0.39340 0.74795 0.19085 1.0000
B17 B 1 0.88610 0.04275 0.33730 1.0000
B18 B 1 0.11390 0.95725 0.66270 1.0000
B19 B 1 0.61390 0.95725 0.83730 1.0000
B20 B 1 0.38610 0.04275 0.16270 1.0000
B21 B 1 0.11390 0.54275 0.16270 1.0000
B22 B 1 0.88610 0.45725 0.83730 1.0000
B23 B 1 0.38610 0.45725 0.66270 1.0000
B24 B 1 0.61390 0.54275 0.33730 1.0000
B25 B 1 0.39040 0.17050 0.62550 1.0000
B26 B 1 0.60960 0.82950 0.37450 1.0000
B27 B 1 0.10960 0.82950 0.12550 1.0000
B28 B 1 0.89040 0.17050 0.87450 1.0000
B29 B 1 0.60960 0.67050 0.87450 1.0000
B30 B 1 0.39040 0.32950 0.12550 1.0000
B31 B 1 0.89040 0.32950 0.37450 1.0000
B32 B 1 0.10960 0.67050 0.62550 1.0000
#End of data_65_NAFGOR

data_66_VEJYIT
_chemical_name_common		'ZIF2'
_chemical_formula_structural	'Zn2(Im)4'
_chemical_formula_sum		'Ar1 B2'
_citation_special_details	'original source structure doi: 10.1073/pnas.0602439103'
;
File: VEJYIT.cif.
;
_cell_length_a			3.17381
_cell_length_b			7.90715
_cell_length_c			8.01733
_cell_angle_alpha		90.00000
_cell_angle_beta		90.00000
_cell_angle_gamma		90.00000
_cell_volume			201.20142
_cell_formula_units_Z		16
_symmetry_space_group_name_H-M	'P 1'
_symmetry_Int_Tables_number	1
loop_
_symmetry_equiv_pos_site_id
_symmetry_equiv_pos_as_xyz
1 x,y,z
loop_
_atom_site_label
_atom_site_type_symbol
_atom_site_symmetry_multiplicity
_atom_site_fract_x
_atom_site_fract_y
_atom_site_fract_z
_atom_site_occupancy
Ar1 Ar 1 0.98489 0.17465 0.50122 1.0000
Ar2 Ar 1 0.01511 0.82535 0.49878 1.0000
Ar3 Ar 1 0.51511 0.82535 0.00122 1.0000
Ar4 Ar 1 0.48489 0.17465 0.99878 1.0000
Ar5 Ar 1 0.01511 0.67465 0.99878 1.0000
Ar6 Ar 1 0.98489 0.32535 0.00122 1.0000
Ar7 Ar 1 0.48489 0.32535 0.49878 1.0000
Ar8 Ar 1 0.51511 0.67465 0.50122 1.0000
Ar9 Ar 1 0.99796 0.00179 0.32387 1.0000
Ar10 Ar 1 0.00204 0.99821 0.67613 1.0000
Ar11 Ar 1 0.50204 0.99821 0.82387 1.0000
Ar12 Ar 1 0.49796 0.00179 0.17613 1.0000
Ar13 Ar 1 0.00204 0.50179 0.17613 1.0000
Ar14 Ar 1 0.99796 0.49821 0.82387 1.0000
Ar15 Ar 1 0.49796 0.49821 0.67613 1.0000
Ar16 Ar 1 0.50204 0.50179 0.32387 1.0000
B1 B 1 0.95335 0.10075 0.39950 1.0000
B2 B 1 0.04665 0.89925 0.60050 1.0000
B3 B 1 0.54665 0.89925 0.89950 1.0000
B4 B 1 0.45335 0.10075 0.10050 1.0000
B5 B 1 0.04665 0.60075 0.10050 1.0000
B6 B 1 0.95335 0.39925 0.89950 1.0000
B7 B 1 0.45335 0.39925 0.60050 1.0000
B8 B 1 0.54665 0.60075 0.39950 1.0000
B9 B 1 0.78630 0.99470 0.22950 1.0000
B10 B 1 0.21370 0.00530 0.77050 1.0000
B11 B 1 0.71370 0.00530 0.72950 1.0000
B12 B 1 0.28630 0.99470 0.27050 1.0000
B13 B 1 0.21370 0.49470 0.27050 1.0000
B14 B 1 0.78630 0.50530 0.72950 1.0000
B15 B 1 0.28630 0.50530 0.77050 1.0000
B16 B 1 0.71370 0.49470 0.22950 1.0000
B17 B 1 0.21080 0.26200 0.48030 1.0000
B18 B 1 0.78920 0.73800 0.51970 1.0000
B19 B 1 0.28920 0.73800 0.98030 1.0000
B20 B 1 0.71080 0.26200 0.01970 1.0000
B21 B 1 0.78920 0.76200 0.01970 1.0000
B22 B 1 0.21080 0.23800 0.98030 1.0000
B23 B 1 0.71080 0.23800 0.51970 1.0000
B24 B 1 0.28920 0.76200 0.48030 1.0000
B25 B 1 0.04415 0.09800 0.59765 1.0000
B26 B 1 0.95585 0.90200 0.40235 1.0000
B27 B 1 0.45585 0.90200 0.09765 1.0000
B28 B 1 0.54415 0.09800 0.90235 1.0000
B29 B 1 0.95585 0.59800 0.90235 1.0000
B30 B 1 0.04415 0.40200 0.09765 1.0000
B31 B 1 0.54415 0.40200 0.40235 1.0000
B32 B 1 0.45585 0.59800 0.59765 1.0000
#End of data_66_VEJYIT

data_67_MECWEX
_chemical_formula_structural	'Zn(mIm)2'
_chemical_formula_sum		'Ar1 B2'
_citation_special_details	'original source structure doi: 10.1002/anie.200503778'
;
File: MECWEX.cif.
;
_cell_length_a			5.54737
_cell_length_b			5.54737
_cell_length_c			5.54737
_cell_angle_alpha		90.00000
_cell_angle_beta		90.00000
_cell_angle_gamma		90.00000
_cell_volume			170.71097
_cell_formula_units_Z		12
_symmetry_space_group_name_H-M	'P 1'
_symmetry_Int_Tables_number	1
loop_
_symmetry_equiv_pos_site_id
_symmetry_equiv_pos_as_xyz
1 x,y,z
loop_
_atom_site_label
_atom_site_type_symbol
_atom_site_symmetry_multiplicity
_atom_site_fract_x
_atom_site_fract_y
_atom_site_fract_z
_atom_site_occupancy
Ar1 Ar 1 0.50000 0.00000 0.25000 1.0000
Ar2 Ar 1 0.50000 0.00000 0.75000 1.0000
Ar3 Ar 1 0.25000 0.50000 0.00000 1.0000
Ar4 Ar 1 0.75000 0.50000 0.00000 1.0000
Ar5 Ar 1 0.00000 0.25000 0.50000 1.0000
Ar6 Ar 1 0.00000 0.75000 0.50000 1.0000
Ar7 Ar 1 0.00000 0.50000 0.25000 1.0000
Ar8 Ar 1 0.00000 0.50000 0.75000 1.0000
Ar9 Ar 1 0.50000 0.25000 0.00000 1.0000
Ar10 Ar 1 0.50000 0.75000 0.00000 1.0000
Ar11 Ar 1 0.25000 0.00000 0.50000 1.0000
Ar12 Ar 1 0.75000 0.00000 0.50000 1.0000
B1 B 1 0.36378 0.03153 0.36378 1.0000
B2 B 1 0.63621 0.96847 0.36378 1.0000
B3 B 1 0.63621 0.03153 0.63621 1.0000
B4 B 1 0.36378 0.96847 0.63621 1.0000
B5 B 1 0.36378 0.36378 0.03153 1.0000
B6 B 1 0.36378 0.63621 0.96847 1.0000
B7 B 1 0.63621 0.63621 0.03153 1.0000
B8 B 1 0.63621 0.36378 0.96847 1.0000
B9 B 1 0.03153 0.36378 0.36378 1.0000
B10 B 1 0.96847 0.36378 0.63621 1.0000
B11 B 1 0.03153 0.63621 0.63621 1.0000
B12 B 1 0.96847 0.63621 0.36378 1.0000
B13 B 1 0.86379 0.53153 0.86379 1.0000
B14 B 1 0.13622 0.46847 0.86379 1.0000
B15 B 1 0.13622 0.53153 0.13622 1.0000
B16 B 1 0.86379 0.46847 0.13622 1.0000
B17 B 1 0.86379 0.86379 0.53153 1.0000
B18 B 1 0.86379 0.13622 0.46847 1.0000
B19 B 1 0.13622 0.13622 0.53153 1.0000
B20 B 1 0.13622 0.86379 0.46847 1.0000
B21 B 1 0.53153 0.86379 0.86379 1.0000
B22 B 1 0.46847 0.86379 0.13622 1.0000
B23 B 1 0.53153 0.13622 0.13622 1.0000
B24 B 1 0.46847 0.13622 0.86379 1.0000
#End of data_67_MECWEX

data_68_VEJYUF
_chemical_name_common		'ZIF4'
_chemical_formula_structural	'Zn(Im)2'
_chemical_formula_sum		'Ar1 B2'
_citation_special_details	'original source structure doi: 10.1073/pnas.0602439103'
;
File: VEJYUF.cif.
;
_cell_length_a			5.07740
_cell_length_b			5.04847
_cell_length_c			6.07704
_cell_angle_alpha		90.00000
_cell_angle_beta		90.00000
_cell_angle_gamma		90.00000
_cell_volume			155.77345
_cell_formula_units_Z		16
_symmetry_space_group_name_H-M	'P 1'
_symmetry_Int_Tables_number	1
loop_
_symmetry_equiv_pos_site_id
_symmetry_equiv_pos_as_xyz
1 x,y,z
loop_
_atom_site_label
_atom_site_type_symbol
_atom_site_symmetry_multiplicity
_atom_site_fract_x
_atom_site_fract_y
_atom_site_fract_z
_atom_site_occupancy
Ar1 Ar 1 0.70215 0.63949 0.90830 1.0000
Ar2 Ar 1 0.29785 0.36051 0.09170 1.0000
Ar3 Ar 1 0.79785 0.36051 0.40830 1.0000
Ar4 Ar 1 0.20215 0.63949 0.59170 1.0000
Ar5 Ar 1 0.29785 0.13949 0.59170 1.0000
Ar6 Ar 1 0.70215 0.86051 0.40830 1.0000
Ar7 Ar 1 0.20215 0.86051 0.09170 1.0000
Ar8 Ar 1 0.79785 0.13949 0.90830 1.0000
Ar9 Ar 1 0.00963 0.83602 0.81374 1.0000
Ar10 Ar 1 0.99037 0.16398 0.18626 1.0000
Ar11 Ar 1 0.49037 0.16398 0.31374 1.0000
Ar12 Ar 1 0.50963 0.83602 0.68626 1.0000
Ar13 Ar 1 0.99037 0.33602 0.68626 1.0000
Ar14 Ar 1 0.00963 0.66398 0.31374 1.0000
Ar15 Ar 1 0.50963 0.66398 0.18626 1.0000
Ar16 Ar 1 0.49037 0.33602 0.81374 1.0000
B1 B 1 0.88539 0.69831 0.87203 1.0000
B2 B 1 0.11461 0.30169 0.12797 1.0000
B3 B 1 0.61461 0.30169 0.37203 1.0000
B4 B 1 0.38539 0.69831 0.62797 1.0000
B5 B 1 0.11461 0.19831 0.62797 1.0000
B6 B 1 0.88539 0.80169 0.37203 1.0000
B7 B 1 0.38539 0.80169 0.12797 1.0000
B8 B 1 0.61461 0.19831 0.87203 1.0000
B9 B 1 0.59848 0.77562 0.82437 1.0000
B10 B 1 0.40152 0.22438 0.17563 1.0000
B11 B 1 0.90152 0.22438 0.32437 1.0000
B12 B 1 0.09848 0.77562 0.67563 1.0000
B13 B 1 0.40152 0.27562 0.67563 1.0000
B14 B 1 0.59848 0.72438 0.32437 1.0000
B15 B 1 0.09848 0.72438 0.17563 1.0000
B16 B 1 0.90152 0.27562 0.82437 1.0000
B17 B 1 0.13753 0.87251 0.93657 1.0000
B18 B 1 0.86247 0.12749 0.06343 1.0000
B19 B 1 0.36247 0.12749 0.43657 1.0000
B20 B 1 0.63753 0.87251 0.56343 1.0000
B21 B 1 0.86247 0.37251 0.56343 1.0000
B22 B 1 0.13753 0.62749 0.43657 1.0000
B23 B 1 0.63753 0.62749 0.06343 1.0000
B24 B 1 0.36247 0.37251 0.93657 1.0000
B25 B 1 0.88037 0.98486 0.82890 1.0000
B26 B 1 0.11963 0.01514 0.17110 1.0000
B27 B 1 0.61963 0.01514 0.32890 1.0000
B28 B 1 0.38037 0.98486 0.67110 1.0000
B29 B 1 0.11963 0.48486 0.67110 1.0000
B30 B 1 0.88037 0.51514 0.32890 1.0000
B31 B 1 0.38037 0.51514 0.17110 1.0000
B32 B 1 0.61963 0.48486 0.82890 1.0000
#End of data_68_VEJYUF

data_69_MIHHAN
_chemical_name_common		'ZIF20Â  '
_chemical_formula_structural	'Zn(pur)2'
_chemical_formula_sum		'Ar1 B2'
_citation_special_details	'original source structure doi: 10.1038/nmat1927'
;
File: MIHHAN.cif.
;
_cell_length_a			14.91635
_cell_length_b			14.91635
_cell_length_c			14.91635
_cell_angle_alpha		90.00000
_cell_angle_beta		90.00000
_cell_angle_gamma		90.00000
_cell_volume			3318.84941
_cell_formula_units_Z		192
_symmetry_space_group_name_H-M	'P 1'
_symmetry_Int_Tables_number	1
loop_
_symmetry_equiv_pos_site_id
_symmetry_equiv_pos_as_xyz
1 x,y,z
loop_
_atom_site_label
_atom_site_type_symbol
_atom_site_symmetry_multiplicity
_atom_site_fract_x
_atom_site_fract_y
_atom_site_fract_z
_atom_site_occupancy
Ar1 Ar 1 0.34166 0.24953 0.06560 1.0000
Ar2 Ar 1 0.65834 0.75047 0.93440 1.0000
Ar3 Ar 1 0.65834 0.75047 0.06560 1.0000
Ar4 Ar 1 0.34166 0.24953 0.93440 1.0000
Ar5 Ar 1 0.65834 0.24953 0.93440 1.0000
Ar6 Ar 1 0.34166 0.75047 0.06560 1.0000
Ar7 Ar 1 0.34166 0.75047 0.93440 1.0000
Ar8 Ar 1 0.65834 0.24953 0.06560 1.0000
Ar9 Ar 1 0.06560 0.34166 0.24953 1.0000
Ar10 Ar 1 0.93440 0.65834 0.75047 1.0000
Ar11 Ar 1 0.06560 0.65834 0.75047 1.0000
Ar12 Ar 1 0.93440 0.34166 0.24953 1.0000
Ar13 Ar 1 0.93440 0.65834 0.24953 1.0000
Ar14 Ar 1 0.06560 0.34166 0.75047 1.0000
Ar15 Ar 1 0.93440 0.34166 0.75047 1.0000
Ar16 Ar 1 0.06560 0.65834 0.24953 1.0000
Ar17 Ar 1 0.24953 0.06560 0.34166 1.0000
Ar18 Ar 1 0.75047 0.93440 0.65834 1.0000
Ar19 Ar 1 0.75047 0.06560 0.65834 1.0000
Ar20 Ar 1 0.24953 0.93440 0.34166 1.0000
Ar21 Ar 1 0.24953 0.93440 0.65834 1.0000
Ar22 Ar 1 0.75047 0.06560 0.34166 1.0000
Ar23 Ar 1 0.75047 0.93440 0.34166 1.0000
Ar24 Ar 1 0.24953 0.06560 0.65834 1.0000
Ar25 Ar 1 0.24953 0.34166 0.93440 1.0000
Ar26 Ar 1 0.75047 0.65834 0.06560 1.0000
Ar27 Ar 1 0.75047 0.65834 0.93440 1.0000
Ar28 Ar 1 0.24953 0.34166 0.06560 1.0000
Ar29 Ar 1 0.24953 0.65834 0.06560 1.0000
Ar30 Ar 1 0.75047 0.34166 0.93440 1.0000
Ar31 Ar 1 0.75047 0.34166 0.06560 1.0000
Ar32 Ar 1 0.24953 0.65834 0.93440 1.0000
Ar33 Ar 1 0.34166 0.06560 0.75047 1.0000
Ar34 Ar 1 0.65834 0.93440 0.24953 1.0000
Ar35 Ar 1 0.65834 0.06560 0.24953 1.0000
Ar36 Ar 1 0.34166 0.93440 0.75047 1.0000
Ar37 Ar 1 0.65834 0.93440 0.75047 1.0000
Ar38 Ar 1 0.34166 0.06560 0.24953 1.0000
Ar39 Ar 1 0.34166 0.93440 0.24953 1.0000
Ar40 Ar 1 0.65834 0.06560 0.75047 1.0000
Ar41 Ar 1 0.06560 0.24953 0.65834 1.0000
Ar42 Ar 1 0.93440 0.75047 0.34166 1.0000
Ar43 Ar 1 0.06560 0.75047 0.34166 1.0000
Ar44 Ar 1 0.93440 0.24953 0.65834 1.0000
Ar45 Ar 1 0.93440 0.24953 0.34166 1.0000
Ar46 Ar 1 0.06560 0.75047 0.65834 1.0000
Ar47 Ar 1 0.93440 0.75047 0.65834 1.0000
Ar48 Ar 1 0.06560 0.24953 0.34166 1.0000
Ar49 Ar 1 0.34166 0.74953 0.56560 1.0000
Ar50 Ar 1 0.65834 0.25047 0.43440 1.0000
Ar51 Ar 1 0.65834 0.25047 0.56560 1.0000
Ar52 Ar 1 0.34166 0.74953 0.43440 1.0000
Ar53 Ar 1 0.65834 0.74953 0.43440 1.0000
Ar54 Ar 1 0.34166 0.25047 0.56560 1.0000
Ar55 Ar 1 0.34166 0.25047 0.43440 1.0000
Ar56 Ar 1 0.65834 0.74953 0.56560 1.0000
Ar57 Ar 1 0.06560 0.84166 0.74953 1.0000
Ar58 Ar 1 0.93440 0.15834 0.25047 1.0000
Ar59 Ar 1 0.06560 0.15834 0.25047 1.0000
Ar60 Ar 1 0.93440 0.84166 0.74953 1.0000
Ar61 Ar 1 0.93440 0.15834 0.74953 1.0000
Ar62 Ar 1 0.06560 0.84166 0.25047 1.0000
Ar63 Ar 1 0.93440 0.84166 0.25047 1.0000
Ar64 Ar 1 0.06560 0.15834 0.74953 1.0000
Ar65 Ar 1 0.24953 0.56560 0.84166 1.0000
Ar66 Ar 1 0.75047 0.43440 0.15834 1.0000
Ar67 Ar 1 0.75047 0.56560 0.15834 1.0000
Ar68 Ar 1 0.24953 0.43440 0.84166 1.0000
Ar69 Ar 1 0.24953 0.43440 0.15834 1.0000
Ar70 Ar 1 0.75047 0.56560 0.84166 1.0000
Ar71 Ar 1 0.75047 0.43440 0.84166 1.0000
Ar72 Ar 1 0.24953 0.56560 0.15834 1.0000
Ar73 Ar 1 0.24953 0.84166 0.43440 1.0000
Ar74 Ar 1 0.75047 0.15834 0.56560 1.0000
Ar75 Ar 1 0.75047 0.15834 0.43440 1.0000
Ar76 Ar 1 0.24953 0.84166 0.56560 1.0000
Ar77 Ar 1 0.24953 0.15834 0.56560 1.0000
Ar78 Ar 1 0.75047 0.84166 0.43440 1.0000
Ar79 Ar 1 0.75047 0.84166 0.56560 1.0000
Ar80 Ar 1 0.24953 0.15834 0.43440 1.0000
Ar81 Ar 1 0.34166 0.56560 0.25047 1.0000
Ar82 Ar 1 0.65834 0.43440 0.74953 1.0000
Ar83 Ar 1 0.65834 0.56560 0.74953 1.0000
Ar84 Ar 1 0.34166 0.43440 0.25047 1.0000
Ar85 Ar 1 0.65834 0.43440 0.25047 1.0000
Ar86 Ar 1 0.34166 0.56560 0.74953 1.0000
Ar87 Ar 1 0.34166 0.43440 0.74953 1.0000
Ar88 Ar 1 0.65834 0.56560 0.25047 1.0000
Ar89 Ar 1 0.06560 0.74953 0.15834 1.0000
Ar90 Ar 1 0.93440 0.25047 0.84166 1.0000
Ar91 Ar 1 0.06560 0.25047 0.84166 1.0000
Ar92 Ar 1 0.93440 0.74953 0.15834 1.0000
Ar93 Ar 1 0.93440 0.74953 0.84166 1.0000
Ar94 Ar 1 0.06560 0.25047 0.15834 1.0000
Ar95 Ar 1 0.93440 0.25047 0.15834 1.0000
Ar96 Ar 1 0.06560 0.74953 0.84166 1.0000
Ar97 Ar 1 0.84166 0.24953 0.56560 1.0000
Ar98 Ar 1 0.15834 0.75047 0.43440 1.0000
Ar99 Ar 1 0.15834 0.75047 0.56560 1.0000
Ar100 Ar 1 0.84166 0.24953 0.43440 1.0000
Ar101 Ar 1 0.15834 0.24953 0.43440 1.0000
Ar102 Ar 1 0.84166 0.75047 0.56560 1.0000
Ar103 Ar 1 0.84166 0.75047 0.43440 1.0000
Ar104 Ar 1 0.15834 0.24953 0.56560 1.0000
Ar105 Ar 1 0.56560 0.34166 0.74953 1.0000
Ar106 Ar 1 0.43440 0.65834 0.25047 1.0000
Ar107 Ar 1 0.56560 0.65834 0.25047 1.0000
Ar108 Ar 1 0.43440 0.34166 0.74953 1.0000
Ar109 Ar 1 0.43440 0.65834 0.74953 1.0000
Ar110 Ar 1 0.56560 0.34166 0.25047 1.0000
Ar111 Ar 1 0.43440 0.34166 0.25047 1.0000
Ar112 Ar 1 0.56560 0.65834 0.74953 1.0000
Ar113 Ar 1 0.74953 0.06560 0.84166 1.0000
Ar114 Ar 1 0.25047 0.93440 0.15834 1.0000
Ar115 Ar 1 0.25047 0.06560 0.15834 1.0000
Ar116 Ar 1 0.74953 0.93440 0.84166 1.0000
Ar117 Ar 1 0.74953 0.93440 0.15834 1.0000
Ar118 Ar 1 0.25047 0.06560 0.84166 1.0000
Ar119 Ar 1 0.25047 0.93440 0.84166 1.0000
Ar120 Ar 1 0.74953 0.06560 0.15834 1.0000
Ar121 Ar 1 0.74953 0.34166 0.43440 1.0000
Ar122 Ar 1 0.25047 0.65834 0.56560 1.0000
Ar123 Ar 1 0.25047 0.65834 0.43440 1.0000
Ar124 Ar 1 0.74953 0.34166 0.56560 1.0000
Ar125 Ar 1 0.74953 0.65834 0.56560 1.0000
Ar126 Ar 1 0.25047 0.34166 0.43440 1.0000
Ar127 Ar 1 0.25047 0.34166 0.56560 1.0000
Ar128 Ar 1 0.74953 0.65834 0.43440 1.0000
Ar129 Ar 1 0.84166 0.06560 0.25047 1.0000
Ar130 Ar 1 0.15834 0.93440 0.74953 1.0000
Ar131 Ar 1 0.15834 0.06560 0.74953 1.0000
Ar132 Ar 1 0.84166 0.93440 0.25047 1.0000
Ar133 Ar 1 0.15834 0.93440 0.25047 1.0000
Ar134 Ar 1 0.84166 0.06560 0.74953 1.0000
Ar135 Ar 1 0.84166 0.93440 0.74953 1.0000
Ar136 Ar 1 0.15834 0.06560 0.25047 1.0000
Ar137 Ar 1 0.56560 0.24953 0.15834 1.0000
Ar138 Ar 1 0.43440 0.75047 0.84166 1.0000
Ar139 Ar 1 0.56560 0.75047 0.84166 1.0000
Ar140 Ar 1 0.43440 0.24953 0.15834 1.0000
Ar141 Ar 1 0.43440 0.24953 0.84166 1.0000
Ar142 Ar 1 0.56560 0.75047 0.15834 1.0000
Ar143 Ar 1 0.43440 0.75047 0.15834 1.0000
Ar144 Ar 1 0.56560 0.24953 0.84166 1.0000
Ar145 Ar 1 0.84166 0.74953 0.06560 1.0000
Ar146 Ar 1 0.15834 0.25047 0.93440 1.0000
Ar147 Ar 1 0.15834 0.25047 0.06560 1.0000
Ar148 Ar 1 0.84166 0.74953 0.93440 1.0000
Ar149 Ar 1 0.15834 0.74953 0.93440 1.0000
Ar150 Ar 1 0.84166 0.25047 0.06560 1.0000
Ar151 Ar 1 0.84166 0.25047 0.93440 1.0000
Ar152 Ar 1 0.15834 0.74953 0.06560 1.0000
Ar153 Ar 1 0.56560 0.84166 0.24953 1.0000
Ar154 Ar 1 0.43440 0.15834 0.75047 1.0000
Ar155 Ar 1 0.56560 0.15834 0.75047 1.0000
Ar156 Ar 1 0.43440 0.84166 0.24953 1.0000
Ar157 Ar 1 0.43440 0.15834 0.24953 1.0000
Ar158 Ar 1 0.56560 0.84166 0.75047 1.0000
Ar159 Ar 1 0.43440 0.84166 0.75047 1.0000
Ar160 Ar 1 0.56560 0.15834 0.24953 1.0000
Ar161 Ar 1 0.74953 0.56560 0.34166 1.0000
Ar162 Ar 1 0.25047 0.43440 0.65834 1.0000
Ar163 Ar 1 0.25047 0.56560 0.65834 1.0000
Ar164 Ar 1 0.74953 0.43440 0.34166 1.0000
Ar165 Ar 1 0.74953 0.43440 0.65834 1.0000
Ar166 Ar 1 0.25047 0.56560 0.34166 1.0000
Ar167 Ar 1 0.25047 0.43440 0.34166 1.0000
Ar168 Ar 1 0.74953 0.56560 0.65834 1.0000
Ar169 Ar 1 0.74953 0.84166 0.93440 1.0000
Ar170 Ar 1 0.25047 0.15834 0.06560 1.0000
Ar171 Ar 1 0.25047 0.15834 0.93440 1.0000
Ar172 Ar 1 0.74953 0.84166 0.06560 1.0000
Ar173 Ar 1 0.74953 0.15834 0.06560 1.0000
Ar174 Ar 1 0.25047 0.84166 0.93440 1.0000
Ar175 Ar 1 0.25047 0.84166 0.06560 1.0000
Ar176 Ar 1 0.74953 0.15834 0.93440 1.0000
Ar177 Ar 1 0.84166 0.56560 0.75047 1.0000
Ar178 Ar 1 0.15834 0.43440 0.24953 1.0000
Ar179 Ar 1 0.15834 0.56560 0.24953 1.0000
Ar180 Ar 1 0.84166 0.43440 0.75047 1.0000
Ar181 Ar 1 0.15834 0.43440 0.75047 1.0000
Ar182 Ar 1 0.84166 0.56560 0.24953 1.0000
Ar183 Ar 1 0.84166 0.43440 0.24953 1.0000
Ar184 Ar 1 0.15834 0.56560 0.75047 1.0000
Ar185 Ar 1 0.56560 0.74953 0.65834 1.0000
Ar186 Ar 1 0.43440 0.25047 0.34166 1.0000
Ar187 Ar 1 0.56560 0.25047 0.34166 1.0000
Ar188 Ar 1 0.43440 0.74953 0.65834 1.0000
Ar189 Ar 1 0.43440 0.74953 0.34166 1.0000
Ar190 Ar 1 0.56560 0.25047 0.65834 1.0000
Ar191 Ar 1 0.43440 0.25047 0.65834 1.0000
Ar192 Ar 1 0.56560 0.74953 0.34166 1.0000
B1 B 1 0.29418 0.20582 0.08376 1.0000
B2 B 1 0.70582 0.79418 0.91624 1.0000
B3 B 1 0.70582 0.79418 0.08376 1.0000
B4 B 1 0.29418 0.20582 0.91624 1.0000
B5 B 1 0.70582 0.20582 0.91624 1.0000
B6 B 1 0.29418 0.79418 0.08376 1.0000
B7 B 1 0.29418 0.79418 0.91624 1.0000
B8 B 1 0.70582 0.20582 0.08376 1.0000
B9 B 1 0.08376 0.29418 0.20582 1.0000
B10 B 1 0.91624 0.70582 0.79418 1.0000
B11 B 1 0.08376 0.70582 0.79418 1.0000
B12 B 1 0.91624 0.29418 0.20582 1.0000
B13 B 1 0.91624 0.70582 0.20582 1.0000
B14 B 1 0.08376 0.29418 0.79418 1.0000
B15 B 1 0.91624 0.29418 0.79418 1.0000
B16 B 1 0.08376 0.70582 0.20582 1.0000
B17 B 1 0.20582 0.08376 0.29418 1.0000
B18 B 1 0.79418 0.91624 0.70582 1.0000
B19 B 1 0.79418 0.08376 0.70582 1.0000
B20 B 1 0.20582 0.91624 0.29418 1.0000
B21 B 1 0.20582 0.91624 0.70582 1.0000
B22 B 1 0.79418 0.08376 0.29418 1.0000
B23 B 1 0.79418 0.91624 0.29418 1.0000
B24 B 1 0.20582 0.08376 0.70582 1.0000
B25 B 1 0.20582 0.29418 0.91624 1.0000
B26 B 1 0.79418 0.70582 0.08376 1.0000
B27 B 1 0.79418 0.70582 0.91624 1.0000
B28 B 1 0.20582 0.29418 0.08376 1.0000
B29 B 1 0.20582 0.70582 0.08376 1.0000
B30 B 1 0.79418 0.29418 0.91624 1.0000
B31 B 1 0.79418 0.29418 0.08376 1.0000
B32 B 1 0.20582 0.70582 0.91624 1.0000
B33 B 1 0.29418 0.08376 0.79418 1.0000
B34 B 1 0.70582 0.91624 0.20582 1.0000
B35 B 1 0.70582 0.08376 0.20582 1.0000
B36 B 1 0.29418 0.91624 0.79418 1.0000
B37 B 1 0.70582 0.91624 0.79418 1.0000
B38 B 1 0.29418 0.08376 0.20582 1.0000
B39 B 1 0.29418 0.91624 0.20582 1.0000
B40 B 1 0.70582 0.08376 0.79418 1.0000
B41 B 1 0.08376 0.20582 0.70582 1.0000
B42 B 1 0.91624 0.79418 0.29418 1.0000
B43 B 1 0.08376 0.79418 0.29418 1.0000
B44 B 1 0.91624 0.20582 0.70582 1.0000
B45 B 1 0.91624 0.20582 0.29418 1.0000
B46 B 1 0.08376 0.79418 0.70582 1.0000
B47 B 1 0.91624 0.79418 0.70582 1.0000
B48 B 1 0.08376 0.20582 0.29418 1.0000
B49 B 1 0.29418 0.70582 0.58376 1.0000
B50 B 1 0.70582 0.29418 0.41624 1.0000
B51 B 1 0.70582 0.29418 0.58376 1.0000
B52 B 1 0.29418 0.70582 0.41624 1.0000
B53 B 1 0.70582 0.70582 0.41624 1.0000
B54 B 1 0.29418 0.29418 0.58376 1.0000
B55 B 1 0.29418 0.29418 0.41624 1.0000
B56 B 1 0.70582 0.70582 0.58376 1.0000
B57 B 1 0.20582 0.58376 0.79418 1.0000
B58 B 1 0.79418 0.41624 0.20582 1.0000
B59 B 1 0.79418 0.58376 0.20582 1.0000
B60 B 1 0.20582 0.41624 0.79418 1.0000
B61 B 1 0.20582 0.41624 0.20582 1.0000
B62 B 1 0.79418 0.58376 0.79418 1.0000
B63 B 1 0.79418 0.41624 0.79418 1.0000
B64 B 1 0.20582 0.58376 0.20582 1.0000
B65 B 1 0.20582 0.79418 0.41624 1.0000
B66 B 1 0.79418 0.20582 0.58376 1.0000
B67 B 1 0.79418 0.20582 0.41624 1.0000
B68 B 1 0.20582 0.79418 0.58376 1.0000
B69 B 1 0.20582 0.20582 0.58376 1.0000
B70 B 1 0.79418 0.79418 0.41624 1.0000
B71 B 1 0.79418 0.79418 0.58376 1.0000
B72 B 1 0.20582 0.20582 0.41624 1.0000
B73 B 1 0.29418 0.58376 0.29418 1.0000
B74 B 1 0.70582 0.41624 0.70582 1.0000
B75 B 1 0.70582 0.58376 0.70582 1.0000
B76 B 1 0.29418 0.41624 0.29418 1.0000
B77 B 1 0.70582 0.41624 0.29418 1.0000
B78 B 1 0.29418 0.58376 0.70582 1.0000
B79 B 1 0.29418 0.41624 0.70582 1.0000
B80 B 1 0.70582 0.58376 0.29418 1.0000
B81 B 1 0.58376 0.29418 0.70582 1.0000
B82 B 1 0.41624 0.70582 0.29418 1.0000
B83 B 1 0.58376 0.70582 0.29418 1.0000
B84 B 1 0.41624 0.29418 0.70582 1.0000
B85 B 1 0.41624 0.70582 0.70582 1.0000
B86 B 1 0.58376 0.29418 0.29418 1.0000
B87 B 1 0.41624 0.29418 0.29418 1.0000
B88 B 1 0.58376 0.70582 0.70582 1.0000
B89 B 1 0.58376 0.20582 0.20582 1.0000
B90 B 1 0.41624 0.79418 0.79418 1.0000
B91 B 1 0.58376 0.79418 0.79418 1.0000
B92 B 1 0.41624 0.20582 0.20582 1.0000
B93 B 1 0.41624 0.20582 0.79418 1.0000
B94 B 1 0.58376 0.79418 0.20582 1.0000
B95 B 1 0.41624 0.79418 0.20582 1.0000
B96 B 1 0.58376 0.20582 0.79418 1.0000
B97 B 1 0.34590 0.23484 0.00000 1.0000
B98 B 1 0.65410 0.76516 0.00000 1.0000
B99 B 1 0.65410 0.23484 0.00000 1.0000
B100 B 1 0.34590 0.76516 0.00000 1.0000
B101 B 1 0.00000 0.34590 0.23484 1.0000
B102 B 1 0.00000 0.65410 0.76516 1.0000
B103 B 1 0.00000 0.65410 0.23484 1.0000
B104 B 1 0.00000 0.34590 0.76516 1.0000
B105 B 1 0.23484 0.00000 0.34590 1.0000
B106 B 1 0.76516 0.00000 0.65410 1.0000
B107 B 1 0.23484 0.00000 0.65410 1.0000
B108 B 1 0.76516 0.00000 0.34590 1.0000
B109 B 1 0.23484 0.34590 0.00000 1.0000
B110 B 1 0.76516 0.65410 0.00000 1.0000
B111 B 1 0.23484 0.65410 0.00000 1.0000
B112 B 1 0.76516 0.34590 0.00000 1.0000
B113 B 1 0.34590 0.00000 0.76516 1.0000
B114 B 1 0.65410 0.00000 0.23484 1.0000
B115 B 1 0.65410 0.00000 0.76516 1.0000
B116 B 1 0.34590 0.00000 0.23484 1.0000
B117 B 1 0.00000 0.23484 0.65410 1.0000
B118 B 1 0.00000 0.76516 0.34590 1.0000
B119 B 1 0.00000 0.23484 0.34590 1.0000
B120 B 1 0.00000 0.76516 0.65410 1.0000
B121 B 1 0.34590 0.73484 0.50000 1.0000
B122 B 1 0.65410 0.26516 0.50000 1.0000
B123 B 1 0.65410 0.73484 0.50000 1.0000
B124 B 1 0.34590 0.26516 0.50000 1.0000
B125 B 1 0.00000 0.84590 0.73484 1.0000
B126 B 1 0.00000 0.15410 0.26516 1.0000
B127 B 1 0.00000 0.15410 0.73484 1.0000
B128 B 1 0.00000 0.84590 0.26516 1.0000
B129 B 1 0.23484 0.50000 0.84590 1.0000
B130 B 1 0.76516 0.50000 0.15410 1.0000
B131 B 1 0.23484 0.50000 0.15410 1.0000
B132 B 1 0.76516 0.50000 0.84590 1.0000
B133 B 1 0.23484 0.84590 0.50000 1.0000
B134 B 1 0.76516 0.15410 0.50000 1.0000
B135 B 1 0.23484 0.15410 0.50000 1.0000
B136 B 1 0.76516 0.84590 0.50000 1.0000
B137 B 1 0.34590 0.50000 0.26516 1.0000
B138 B 1 0.65410 0.50000 0.73484 1.0000
B139 B 1 0.65410 0.50000 0.26516 1.0000
B140 B 1 0.34590 0.50000 0.73484 1.0000
B141 B 1 0.00000 0.73484 0.15410 1.0000
B142 B 1 0.00000 0.26516 0.84590 1.0000
B143 B 1 0.00000 0.73484 0.84590 1.0000
B144 B 1 0.00000 0.26516 0.15410 1.0000
B145 B 1 0.84590 0.23484 0.50000 1.0000
B146 B 1 0.15410 0.76516 0.50000 1.0000
B147 B 1 0.15410 0.23484 0.50000 1.0000
B148 B 1 0.84590 0.76516 0.50000 1.0000
B149 B 1 0.50000 0.34590 0.73484 1.0000
B150 B 1 0.50000 0.65410 0.26516 1.0000
B151 B 1 0.50000 0.65410 0.73484 1.0000
B152 B 1 0.50000 0.34590 0.26516 1.0000
B153 B 1 0.73484 0.00000 0.84590 1.0000
B154 B 1 0.26516 0.00000 0.15410 1.0000
B155 B 1 0.73484 0.00000 0.15410 1.0000
B156 B 1 0.26516 0.00000 0.84590 1.0000
B157 B 1 0.73484 0.34590 0.50000 1.0000
B158 B 1 0.26516 0.65410 0.50000 1.0000
B159 B 1 0.73484 0.65410 0.50000 1.0000
B160 B 1 0.26516 0.34590 0.50000 1.0000
B161 B 1 0.84590 0.00000 0.26516 1.0000
B162 B 1 0.15410 0.00000 0.73484 1.0000
B163 B 1 0.15410 0.00000 0.26516 1.0000
B164 B 1 0.84590 0.00000 0.73484 1.0000
B165 B 1 0.50000 0.23484 0.15410 1.0000
B166 B 1 0.50000 0.76516 0.84590 1.0000
B167 B 1 0.50000 0.23484 0.84590 1.0000
B168 B 1 0.50000 0.76516 0.15410 1.0000
B169 B 1 0.84590 0.73484 0.00000 1.0000
B170 B 1 0.15410 0.26516 0.00000 1.0000
B171 B 1 0.15410 0.73484 0.00000 1.0000
B172 B 1 0.84590 0.26516 0.00000 1.0000
B173 B 1 0.50000 0.84590 0.23484 1.0000
B174 B 1 0.50000 0.15410 0.76516 1.0000
B175 B 1 0.50000 0.15410 0.23484 1.0000
B176 B 1 0.50000 0.84590 0.76516 1.0000
B177 B 1 0.73484 0.50000 0.34590 1.0000
B178 B 1 0.26516 0.50000 0.65410 1.0000
B179 B 1 0.73484 0.50000 0.65410 1.0000
B180 B 1 0.26516 0.50000 0.34590 1.0000
B181 B 1 0.73484 0.84590 0.00000 1.0000
B182 B 1 0.26516 0.15410 0.00000 1.0000
B183 B 1 0.73484 0.15410 0.00000 1.0000
B184 B 1 0.26516 0.84590 0.00000 1.0000
B185 B 1 0.84590 0.50000 0.76516 1.0000
B186 B 1 0.15410 0.50000 0.23484 1.0000
B187 B 1 0.15410 0.50000 0.76516 1.0000
B188 B 1 0.84590 0.50000 0.23484 1.0000
B189 B 1 0.50000 0.73484 0.65410 1.0000
B190 B 1 0.50000 0.26516 0.34590 1.0000
B191 B 1 0.50000 0.73484 0.34590 1.0000
B192 B 1 0.50000 0.26516 0.65410 1.0000
B193 B 1 0.39816 0.24908 0.10184 1.0000
B194 B 1 0.60184 0.75092 0.89816 1.0000
B195 B 1 0.60184 0.75092 0.10184 1.0000
B196 B 1 0.39816 0.24908 0.89816 1.0000
B197 B 1 0.60184 0.24908 0.89816 1.0000
B198 B 1 0.39816 0.75092 0.10184 1.0000
B199 B 1 0.39816 0.75092 0.89816 1.0000
B200 B 1 0.60184 0.24908 0.10184 1.0000
B201 B 1 0.10184 0.39816 0.24908 1.0000
B202 B 1 0.89816 0.60184 0.75092 1.0000
B203 B 1 0.10184 0.60184 0.75092 1.0000
B204 B 1 0.89816 0.39816 0.24908 1.0000
B205 B 1 0.89816 0.60184 0.24908 1.0000
B206 B 1 0.10184 0.39816 0.75092 1.0000
B207 B 1 0.89816 0.39816 0.75092 1.0000
B208 B 1 0.10184 0.60184 0.24908 1.0000
B209 B 1 0.24908 0.10184 0.39816 1.0000
B210 B 1 0.75092 0.89816 0.60184 1.0000
B211 B 1 0.75092 0.10184 0.60184 1.0000
B212 B 1 0.24908 0.89816 0.39816 1.0000
B213 B 1 0.24908 0.89816 0.60184 1.0000
B214 B 1 0.75092 0.10184 0.39816 1.0000
B215 B 1 0.75092 0.89816 0.39816 1.0000
B216 B 1 0.24908 0.10184 0.60184 1.0000
B217 B 1 0.24908 0.39816 0.89816 1.0000
B218 B 1 0.75092 0.60184 0.10184 1.0000
B219 B 1 0.75092 0.60184 0.89816 1.0000
B220 B 1 0.24908 0.39816 0.10184 1.0000
B221 B 1 0.24908 0.60184 0.10184 1.0000
B222 B 1 0.75092 0.39816 0.89816 1.0000
B223 B 1 0.75092 0.39816 0.10184 1.0000
B224 B 1 0.24908 0.60184 0.89816 1.0000
B225 B 1 0.39816 0.10184 0.75092 1.0000
B226 B 1 0.60184 0.89816 0.24908 1.0000
B227 B 1 0.60184 0.10184 0.24908 1.0000
B228 B 1 0.39816 0.89816 0.75092 1.0000
B229 B 1 0.60184 0.89816 0.75092 1.0000
B230 B 1 0.39816 0.10184 0.24908 1.0000
B231 B 1 0.39816 0.89816 0.24908 1.0000
B232 B 1 0.60184 0.10184 0.75092 1.0000
B233 B 1 0.10184 0.24908 0.60184 1.0000
B234 B 1 0.89816 0.75092 0.39816 1.0000
B235 B 1 0.10184 0.75092 0.39816 1.0000
B236 B 1 0.89816 0.24908 0.60184 1.0000
B237 B 1 0.89816 0.24908 0.39816 1.0000
B238 B 1 0.10184 0.75092 0.60184 1.0000
B239 B 1 0.89816 0.75092 0.60184 1.0000
B240 B 1 0.10184 0.24908 0.39816 1.0000
B241 B 1 0.39816 0.74908 0.60184 1.0000
B242 B 1 0.60184 0.25092 0.39816 1.0000
B243 B 1 0.60184 0.25092 0.60184 1.0000
B244 B 1 0.39816 0.74908 0.39816 1.0000
B245 B 1 0.60184 0.74908 0.39816 1.0000
B246 B 1 0.39816 0.25092 0.60184 1.0000
B247 B 1 0.39816 0.25092 0.39816 1.0000
B248 B 1 0.60184 0.74908 0.60184 1.0000
B249 B 1 0.10184 0.89816 0.74908 1.0000
B250 B 1 0.89816 0.10184 0.25092 1.0000
B251 B 1 0.10184 0.10184 0.25092 1.0000
B252 B 1 0.89816 0.89816 0.74908 1.0000
B253 B 1 0.89816 0.10184 0.74908 1.0000
B254 B 1 0.10184 0.89816 0.25092 1.0000
B255 B 1 0.89816 0.89816 0.25092 1.0000
B256 B 1 0.10184 0.10184 0.74908 1.0000
B257 B 1 0.39816 0.60184 0.25092 1.0000
B258 B 1 0.60184 0.39816 0.74908 1.0000
B259 B 1 0.60184 0.60184 0.74908 1.0000
B260 B 1 0.39816 0.39816 0.25092 1.0000
B261 B 1 0.60184 0.39816 0.25092 1.0000
B262 B 1 0.39816 0.60184 0.74908 1.0000
B263 B 1 0.39816 0.39816 0.74908 1.0000
B264 B 1 0.60184 0.60184 0.25092 1.0000
B265 B 1 0.10184 0.74908 0.10184 1.0000
B266 B 1 0.89816 0.25092 0.89816 1.0000
B267 B 1 0.10184 0.25092 0.89816 1.0000
B268 B 1 0.89816 0.74908 0.10184 1.0000
B269 B 1 0.89816 0.74908 0.89816 1.0000
B270 B 1 0.10184 0.25092 0.10184 1.0000
B271 B 1 0.89816 0.25092 0.10184 1.0000
B272 B 1 0.10184 0.74908 0.89816 1.0000
B273 B 1 0.74908 0.10184 0.89816 1.0000
B274 B 1 0.25092 0.89816 0.10184 1.0000
B275 B 1 0.25092 0.10184 0.10184 1.0000
B276 B 1 0.74908 0.89816 0.89816 1.0000
B277 B 1 0.74908 0.89816 0.10184 1.0000
B278 B 1 0.25092 0.10184 0.89816 1.0000
B279 B 1 0.25092 0.89816 0.89816 1.0000
B280 B 1 0.74908 0.10184 0.10184 1.0000
B281 B 1 0.74908 0.39816 0.39816 1.0000
B282 B 1 0.25092 0.60184 0.60184 1.0000
B283 B 1 0.25092 0.60184 0.39816 1.0000
B284 B 1 0.74908 0.39816 0.60184 1.0000
B285 B 1 0.74908 0.60184 0.60184 1.0000
B286 B 1 0.25092 0.39816 0.39816 1.0000
B287 B 1 0.25092 0.39816 0.60184 1.0000
B288 B 1 0.74908 0.60184 0.39816 1.0000
B289 B 1 0.30708 0.30708 0.06569 1.0000
B290 B 1 0.69292 0.69292 0.93431 1.0000
B291 B 1 0.69292 0.69292 0.06569 1.0000
B292 B 1 0.30708 0.30708 0.93431 1.0000
B293 B 1 0.69292 0.30708 0.93431 1.0000
B294 B 1 0.30708 0.69292 0.06569 1.0000
B295 B 1 0.30708 0.69292 0.93431 1.0000
B296 B 1 0.69292 0.30708 0.06569 1.0000
B297 B 1 0.06569 0.30708 0.30708 1.0000
B298 B 1 0.93431 0.69292 0.69292 1.0000
B299 B 1 0.06569 0.69292 0.69292 1.0000
B300 B 1 0.93431 0.30708 0.30708 1.0000
B301 B 1 0.93431 0.69292 0.30708 1.0000
B302 B 1 0.06569 0.30708 0.69292 1.0000
B303 B 1 0.93431 0.30708 0.69292 1.0000
B304 B 1 0.06569 0.69292 0.30708 1.0000
B305 B 1 0.30708 0.06569 0.30708 1.0000
B306 B 1 0.69292 0.93431 0.69292 1.0000
B307 B 1 0.69292 0.06569 0.69292 1.0000
B308 B 1 0.30708 0.93431 0.30708 1.0000
B309 B 1 0.30708 0.93431 0.69292 1.0000
B310 B 1 0.69292 0.06569 0.30708 1.0000
B311 B 1 0.69292 0.93431 0.30708 1.0000
B312 B 1 0.30708 0.06569 0.69292 1.0000
B313 B 1 0.30708 0.80708 0.56569 1.0000
B314 B 1 0.69292 0.19292 0.43431 1.0000
B315 B 1 0.69292 0.19292 0.56569 1.0000
B316 B 1 0.30708 0.80708 0.43431 1.0000
B317 B 1 0.69292 0.80708 0.43431 1.0000
B318 B 1 0.30708 0.19292 0.56569 1.0000
B319 B 1 0.30708 0.19292 0.43431 1.0000
B320 B 1 0.69292 0.80708 0.56569 1.0000
B321 B 1 0.06569 0.80708 0.80708 1.0000
B322 B 1 0.93431 0.19292 0.19292 1.0000
B323 B 1 0.06569 0.19292 0.19292 1.0000
B324 B 1 0.93431 0.80708 0.80708 1.0000
B325 B 1 0.93431 0.19292 0.80708 1.0000
B326 B 1 0.06569 0.80708 0.19292 1.0000
B327 B 1 0.93431 0.80708 0.19292 1.0000
B328 B 1 0.06569 0.19292 0.80708 1.0000
B329 B 1 0.30708 0.56569 0.80708 1.0000
B330 B 1 0.69292 0.43431 0.19292 1.0000
B331 B 1 0.69292 0.56569 0.19292 1.0000
B332 B 1 0.30708 0.43431 0.80708 1.0000
B333 B 1 0.30708 0.43431 0.19292 1.0000
B334 B 1 0.69292 0.56569 0.80708 1.0000
B335 B 1 0.69292 0.43431 0.80708 1.0000
B336 B 1 0.30708 0.56569 0.19292 1.0000
B337 B 1 0.80708 0.30708 0.56569 1.0000
B338 B 1 0.19292 0.69292 0.43431 1.0000
B339 B 1 0.19292 0.69292 0.56569 1.0000
B340 B 1 0.80708 0.30708 0.43431 1.0000
B341 B 1 0.19292 0.30708 0.43431 1.0000
B342 B 1 0.80708 0.69292 0.56569 1.0000
B343 B 1 0.80708 0.69292 0.43431 1.0000
B344 B 1 0.19292 0.30708 0.56569 1.0000
B345 B 1 0.56569 0.30708 0.80708 1.0000
B346 B 1 0.43431 0.69292 0.19292 1.0000
B347 B 1 0.56569 0.69292 0.19292 1.0000
B348 B 1 0.43431 0.30708 0.80708 1.0000
B349 B 1 0.43431 0.69292 0.80708 1.0000
B350 B 1 0.56569 0.30708 0.19292 1.0000
B351 B 1 0.43431 0.30708 0.19292 1.0000
B352 B 1 0.56569 0.69292 0.80708 1.0000
B353 B 1 0.80708 0.06569 0.80708 1.0000
B354 B 1 0.19292 0.93431 0.19292 1.0000
B355 B 1 0.19292 0.06569 0.19292 1.0000
B356 B 1 0.80708 0.93431 0.80708 1.0000
B357 B 1 0.80708 0.93431 0.19292 1.0000
B358 B 1 0.19292 0.06569 0.80708 1.0000
B359 B 1 0.19292 0.93431 0.80708 1.0000
B360 B 1 0.80708 0.06569 0.19292 1.0000
B361 B 1 0.80708 0.80708 0.06569 1.0000
B362 B 1 0.19292 0.19292 0.93431 1.0000
B363 B 1 0.19292 0.19292 0.06569 1.0000
B364 B 1 0.80708 0.80708 0.93431 1.0000
B365 B 1 0.19292 0.80708 0.93431 1.0000
B366 B 1 0.80708 0.19292 0.06569 1.0000
B367 B 1 0.80708 0.19292 0.93431 1.0000
B368 B 1 0.19292 0.80708 0.06569 1.0000
B369 B 1 0.56569 0.80708 0.30708 1.0000
B370 B 1 0.43431 0.19292 0.69292 1.0000
B371 B 1 0.56569 0.19292 0.69292 1.0000
B372 B 1 0.43431 0.80708 0.30708 1.0000
B373 B 1 0.43431 0.19292 0.30708 1.0000
B374 B 1 0.56569 0.80708 0.69292 1.0000
B375 B 1 0.43431 0.80708 0.69292 1.0000
B376 B 1 0.56569 0.19292 0.30708 1.0000
B377 B 1 0.80708 0.56569 0.30708 1.0000
B378 B 1 0.19292 0.43431 0.69292 1.0000
B379 B 1 0.19292 0.56569 0.69292 1.0000
B380 B 1 0.80708 0.43431 0.30708 1.0000
B381 B 1 0.80708 0.43431 0.69292 1.0000
B382 B 1 0.19292 0.56569 0.30708 1.0000
B383 B 1 0.19292 0.43431 0.30708 1.0000
B384 B 1 0.80708 0.56569 0.69292 1.0000
#End of data_69_MIHHAN

data_70_GITTOT
_chemical_name_common		'ZIF67 '
_chemical_formula_structural	'Co(mIm)2'
_chemical_formula_sum		'Ar1 B2'
_citation_special_details	'original source structure doi: 10.1126/science.1152516'
;
File: GITTOT.cif.
;
_cell_length_a			5.54597
_cell_length_b			5.54597
_cell_length_c			5.54597
_cell_angle_alpha		90.00000
_cell_angle_beta		90.00000
_cell_angle_gamma		90.00000
_cell_volume			170.58184
_cell_formula_units_Z		12
_symmetry_space_group_name_H-M	'P 1'
_symmetry_Int_Tables_number	1
loop_
_symmetry_equiv_pos_site_id
_symmetry_equiv_pos_as_xyz
1 x,y,z
loop_
_atom_site_label
_atom_site_type_symbol
_atom_site_symmetry_multiplicity
_atom_site_fract_x
_atom_site_fract_y
_atom_site_fract_z
_atom_site_occupancy
Ar1 Ar 1 0.00000 0.50000 0.75000 1.0000
Ar2 Ar 1 0.00000 0.50000 0.25000 1.0000
Ar3 Ar 1 0.75000 0.00000 0.50000 1.0000
Ar4 Ar 1 0.25000 0.00000 0.50000 1.0000
Ar5 Ar 1 0.50000 0.75000 0.00000 1.0000
Ar6 Ar 1 0.50000 0.25000 0.00000 1.0000
Ar7 Ar 1 0.50000 0.00000 0.75000 1.0000
Ar8 Ar 1 0.50000 0.00000 0.25000 1.0000
Ar9 Ar 1 0.00000 0.75000 0.50000 1.0000
Ar10 Ar 1 0.00000 0.25000 0.50000 1.0000
Ar11 Ar 1 0.75000 0.50000 0.00000 1.0000
Ar12 Ar 1 0.25000 0.50000 0.00000 1.0000
B1 B 1 0.13675 0.53140 0.86325 1.0000
B2 B 1 0.86325 0.46860 0.86325 1.0000
B3 B 1 0.86325 0.53140 0.13675 1.0000
B4 B 1 0.13675 0.46860 0.13675 1.0000
B5 B 1 0.86325 0.13675 0.53140 1.0000
B6 B 1 0.86325 0.86325 0.46860 1.0000
B7 B 1 0.13675 0.86325 0.53140 1.0000
B8 B 1 0.13675 0.13675 0.46860 1.0000
B9 B 1 0.53140 0.86325 0.13675 1.0000
B10 B 1 0.46860 0.86325 0.86325 1.0000
B11 B 1 0.53140 0.13675 0.86325 1.0000
B12 B 1 0.46860 0.13675 0.13675 1.0000
B13 B 1 0.63675 0.03140 0.36325 1.0000
B14 B 1 0.36325 0.96860 0.36325 1.0000
B15 B 1 0.36325 0.03140 0.63675 1.0000
B16 B 1 0.63675 0.96860 0.63675 1.0000
B17 B 1 0.36325 0.63675 0.03140 1.0000
B18 B 1 0.36325 0.36325 0.96860 1.0000
B19 B 1 0.63675 0.36325 0.03140 1.0000
B20 B 1 0.63675 0.63675 0.96860 1.0000
B21 B 1 0.03140 0.36325 0.63675 1.0000
B22 B 1 0.96860 0.36325 0.36325 1.0000
B23 B 1 0.03140 0.63675 0.36325 1.0000
B24 B 1 0.96860 0.63675 0.63675 1.0000
#End of data_70_GITTOT

