
#######################################################################
#
#                 Cambridge Crystallographic Data Centre
#                                CCDC 
#
#######################################################################
#
# If this CIF has been generated from an entry in the Cambridge 
# Structural Database, then it will include bibliographic, chemical, 
# crystal, experimental, refinement or atomic coordinate data resulting 
# from the CCDC's data processing and validation procedures.
#
#######################################################################

data_UiO-66_cdc-H2O
_symmetry_cell_setting           cubic
_symmetry_space_group_name_H-M   'F m -3'
_symmetry_Int_Tables_number      202
_space_group_name_Hall           '-F 2 2 3'
loop_
_symmetry_equiv_pos_site_id
_symmetry_equiv_pos_as_xyz
1 x,y,z
2 z,x,y
3 y,z,x
4 x,y,-z
5 z,x,-y
6 y,z,-x
7 -x,y,z
8 -z,x,y
9 -y,z,x
10 -x,y,-z
11 -z,x,-y
12 -y,z,-x
13 -x,-y,-z
14 -z,-x,-y
15 -y,-z,-x
16 -x,-y,z
17 -z,-x,y
18 -y,-z,x
19 x,-y,-z
20 z,-x,-y
21 y,-z,-x
22 x,-y,z
23 z,-x,y
24 y,-z,x
25 x,1/2+y,1/2+z
26 1/2+x,1/2+y,z
27 1/2+x,y,1/2+z
28 z,1/2+x,1/2+y
29 1/2+z,1/2+x,y
30 1/2+z,x,1/2+y
31 y,1/2+z,1/2+x
32 1/2+y,1/2+z,x
33 1/2+y,z,1/2+x
34 x,1/2+y,1/2-z
35 1/2+x,1/2+y,-z
36 1/2+x,y,1/2-z
37 z,1/2+x,1/2-y
38 1/2+z,1/2+x,-y
39 1/2+z,x,1/2-y
40 y,1/2+z,1/2-x
41 1/2+y,1/2+z,-x
42 1/2+y,z,1/2-x
43 -x,1/2+y,1/2+z
44 1/2-x,1/2+y,z
45 1/2-x,y,1/2+z
46 -z,1/2+x,1/2+y
47 1/2-z,1/2+x,y
48 1/2-z,x,1/2+y
49 -y,1/2+z,1/2+x
50 1/2-y,1/2+z,x
51 1/2-y,z,1/2+x
52 -x,1/2+y,1/2-z
53 1/2-x,1/2+y,-z
54 1/2-x,y,1/2-z
55 -z,1/2+x,1/2-y
56 1/2-z,1/2+x,-y
57 1/2-z,x,1/2-y
58 -y,1/2+z,1/2-x
59 1/2-y,1/2+z,-x
60 1/2-y,z,1/2-x
61 -x,1/2-y,1/2-z
62 1/2-x,1/2-y,-z
63 1/2-x,-y,1/2-z
64 -z,1/2-x,1/2-y
65 1/2-z,1/2-x,-y
66 1/2-z,-x,1/2-y
67 -y,1/2-z,1/2-x
68 1/2-y,1/2-z,-x
69 1/2-y,-z,1/2-x
70 -x,1/2-y,1/2+z
71 1/2-x,1/2-y,z
72 1/2-x,-y,1/2+z
73 -z,1/2-x,1/2+y
74 1/2-z,1/2-x,y
75 1/2-z,-x,1/2+y
76 -y,1/2-z,1/2+x
77 1/2-y,1/2-z,x
78 1/2-y,-z,1/2+x
79 x,1/2-y,1/2-z
80 1/2+x,1/2-y,-z
81 1/2+x,-y,1/2-z
82 z,1/2-x,1/2-y
83 1/2+z,1/2-x,-y
84 1/2+z,-x,1/2-y
85 y,1/2-z,1/2-x
86 1/2+y,1/2-z,-x
87 1/2+y,-z,1/2-x
88 x,1/2-y,1/2+z
89 1/2+x,1/2-y,z
90 1/2+x,-y,1/2+z
91 z,1/2-x,1/2+y
92 1/2+z,1/2-x,y
93 1/2+z,-x,1/2+y
94 y,1/2-z,1/2+x
95 1/2+y,1/2-z,x
96 1/2+y,-z,1/2+x
_cell_length_a                   20.800200(5)
_cell_length_b                   20.800200(5)
_cell_length_c                   20.800200(5)
_cell_angle_alpha                90.000000
_cell_angle_beta                 90.000000
_cell_angle_gamma                90.000000
_cell_volume                     8999.17
loop_
_atom_site_label
_atom_site_type_symbol
_atom_site_fract_x
_atom_site_fract_y
_atom_site_fract_z
_atom_site_U_iso_or_equiv
_atom_site_thermal_displace_type
C1 C 0.15000000(800000) 0.00000000 0.14700000(900000) 0.0519 Uiso
C2 C 0.21000000(300000) 0.00000000 0.19000000(300000) 0.0519 Uiso
C3 C 0.21620000(140000) -0.05940000(110000) 0.23420000(180000) 0.0519 Uiso
O1 O 0.08800000(500000) 0.00000000 0.17200000(400000) 0.0519 Uiso
O2 O 0.17500000(400000) 0.00000000 0.08500000(500000) 0.0519 Uiso
O8 O 0.05880000(60000) 0.05880000(60000) 0.05880000(60000) 0.0519 Uiso
Zr1 Zr 0.00000000 0.00000000 0.11680000(30000) 0.0104 Uiso
C3 C 0.21620000(140000) 0.05940000(110000) 0.23420000(180000) 0.0519 Uiso
C1 C 0.35000000(800000) 0.00000000 0.35300000(900000) 0.0519 Uiso
C2 C 0.29000000(300000) 0.00000000 0.31000000(300000) 0.0519 Uiso
C3 C 0.28380000(140000) -0.05940000(110000) 0.26580000(180000) 0.0519 Uiso
O1 O 0.41200000(500000) 0.00000000 0.32800000(400000) 0.0519 Uiso
O2 O 0.32500000(400000) 0.00000000 0.41500000(500000) 0.0519 Uiso
C3 C 0.28380000(140000) 0.05940000(110000) 0.26580000(180000) 0.0519 Uiso
C1 C 0.14700000(900000) 0.15000000(800000) 0.00000000 0.0519 Uiso
C2 C 0.19000000(300000) 0.21000000(300000) 0.00000000 0.0519 Uiso
C3 C 0.23420000(180000) 0.21620000(140000) -0.05940000(110000) 0.0519 Uiso
O1 O 0.17200000(400000) 0.08800000(500000) 0.00000000 0.0519 Uiso
O2 O 0.08500000(500000) 0.17500000(400000) 0.00000000 0.0519 Uiso
Zr1 Zr 0.11680000(30000) 0.00000000 0.00000000 0.0104 Uiso
C3 C 0.23420000(180000) 0.21620000(140000) 0.05940000(110000) 0.0519 Uiso
C1 C 0.35300000(900000) 0.35000000(800000) 0.00000000 0.0519 Uiso
C2 C 0.31000000(300000) 0.29000000(300000) 0.00000000 0.0519 Uiso
C3 C 0.26580000(180000) 0.28380000(140000) -0.05940000(110000) 0.0519 Uiso
O1 O 0.32800000(400000) 0.41200000(500000) 0.00000000 0.0519 Uiso
O2 O 0.41500000(500000) 0.32500000(400000) 0.00000000 0.0519 Uiso
C3 C 0.26580000(180000) 0.28380000(140000) 0.05940000(110000) 0.0519 Uiso
C1 C 0.00000000 0.14700000(900000) 0.15000000(800000) 0.0519 Uiso
C2 C 0.00000000 0.19000000(300000) 0.21000000(300000) 0.0519 Uiso
C3 C -0.05940000(110000) 0.23420000(180000) 0.21620000(140000) 0.0519 Uiso
O1 O 0.00000000 0.17200000(400000) 0.08800000(500000) 0.0519 Uiso
O2 O 0.00000000 0.08500000(500000) 0.17500000(400000) 0.0519 Uiso
Zr1 Zr 0.00000000 0.11680000(30000) 0.00000000 0.0104 Uiso
C3 C 0.05940000(110000) 0.23420000(180000) 0.21620000(140000) 0.0519 Uiso
C1 C 0.00000000 0.35300000(900000) 0.35000000(800000) 0.0519 Uiso
C2 C 0.00000000 0.31000000(300000) 0.29000000(300000) 0.0519 Uiso
C3 C -0.05940000(110000) 0.26580000(180000) 0.28380000(140000) 0.0519 Uiso
O1 O 0.00000000 0.32800000(400000) 0.41200000(500000) 0.0519 Uiso
O2 O 0.00000000 0.41500000(500000) 0.32500000(400000) 0.0519 Uiso
C3 C 0.05940000(110000) 0.26580000(180000) 0.28380000(140000) 0.0519 Uiso
O8 O 0.05880000(60000) 0.05880000(60000) -0.05880000(60000) 0.0519 Uiso
O8 O -0.05880000(60000) 0.05880000(60000) 0.05880000(60000) 0.0519 Uiso
O8 O -0.05880000(60000) 0.05880000(60000) -0.05880000(60000) 0.0519 Uiso
O1 O 0.00000000 0.17200000(400000) -0.08800000(500000) 0.0519 Uiso
O1 O -0.08800000(500000) 0.00000000 0.17200000(400000) 0.0519 Uiso
O1 O 0.17200000(400000) -0.08800000(500000) 0.00000000 0.0519 Uiso
O2 O 0.17500000(400000) 0.00000000 -0.08500000(500000) 0.0519 Uiso
O2 O -0.08500000(500000) 0.17500000(400000) 0.00000000 0.0519 Uiso
O2 O 0.00000000 -0.08500000(500000) 0.17500000(400000) 0.0519 Uiso
O8 O -0.05880000(60000) -0.05880000(60000) 0.05880000(60000) 0.0519 Uiso
O8 O 0.05880000(60000) -0.05880000(60000) -0.05880000(60000) 0.0519 Uiso
O8 O 0.05880000(60000) -0.05880000(60000) 0.05880000(60000) 0.0519 Uiso
Zr1 Zr 0.00000000 0.00000000 -0.11680000(30000) 0.0104 Uiso
Zr1 Zr -0.11680000(30000) 0.00000000 0.00000000 0.0104 Uiso
Zr1 Zr 0.00000000 -0.11680000(30000) 0.00000000 0.0104 Uiso
Zr1 Zr 0.00000000 0.50000000 0.38320000(30000) 0.0104 Uiso
Zr1 Zr 0.50000000 0.00000000 0.38320000(30000) 0.0104 Uiso
Zr1 Zr 0.38320000(30000) 0.50000000 0.00000000 0.0104 Uiso
Zr1 Zr 0.38320000(30000) 0.00000000 0.50000000 0.0104 Uiso
Zr1 Zr 0.00000000 0.38320000(30000) 0.50000000 0.0104 Uiso
Zr1 Zr 0.50000000 0.38320000(30000) 0.00000000 0.0104 Uiso
H1 H 0.251659 0 0.158289 . .
H2 H 0.21008 -0.103021 0.205901 . .
H3 H 0.179446 -0.0574539 0.271435 . .
H4 H 0.179446 0.0574539 0.271435 . .
H5 H 0.21008 0.103021 0.205901 . .
H6 H 0.248341 0 0.341711 . .
H7 H 0.320554 -0.0574539 0.228565 . .
H8 H 0.28992 -0.103021 0.294099 . .
H9 H 0.28992 0.103021 0.294099 . .
H10 H 0.320554 0.0574539 0.228565 . .
H11 H 0.158289 0.251659 0 . .
H12 H 0.205901 0.21008 -0.103021 . .
H13 H 0.271435 0.179446 -0.0574539 . .
H14 H 0.271435 0.179446 0.0574539 . .
H15 H 0.205901 0.21008 0.103021 . .
H16 H 0.341711 0.248341 0 . .
H17 H 0.228565 0.320554 -0.0574539 . .
H18 H 0.294099 0.28992 -0.103021 . .
H19 H 0.294099 0.28992 0.103021 . .
H20 H 0.228565 0.320554 0.0574539 . .
H21 H 0 0.158289 0.251659 . .
H22 H -0.103021 0.205901 0.21008 . .
H23 H -0.0574539 0.271435 0.179446 . .
H24 H 0.0574539 0.271435 0.179446 . .
H25 H 0.103021 0.205901 0.21008 . .
H26 H 0 0.341711 0.248341 . .
H27 H -0.0574539 0.228565 0.320554 . .
H28 H -0.103021 0.294099 0.28992 . .
H29 H 0.103021 0.294099 0.28992 . .
H30 H 0.0574539 0.228565 0.320554 . .
C1 C 0.15000000(800000) 0.00000000 0.85300000(900000) 0.0519 Uiso
C2 C 0.21000000(300000) 0.00000000 0.81000000(300000) 0.0519 Uiso
C3 C 0.21620000(140000) -0.05940000(110000) 0.76580000(180000) 0.0519 Uiso
O1 O 0.08800000(500000) 0.00000000 0.82800000(400000) 0.0519 Uiso
O2 O 0.17500000(400000) 0.00000000 0.91500000(500000) 0.0519 Uiso
O8 O 0.05880000(60000) 0.05880000(60000) 0.94120000(60000) 0.0519 Uiso
Zr1 Zr 0.00000000 0.00000000 0.88320000(30000) 0.0104 Uiso
C3 C 0.21620000(140000) 0.05940000(110000) 0.76580000(180000) 0.0519 Uiso
C1 C 0.35000000(800000) 0.00000000 0.64700000(900000) 0.0519 Uiso
C2 C 0.29000000(300000) 0.00000000 0.69000000(300000) 0.0519 Uiso
C3 C 0.28380000(140000) -0.05940000(110000) 0.73420000(180000) 0.0519 Uiso
O1 O 0.41200000(500000) 0.00000000 0.67200000(400000) 0.0519 Uiso
O2 O 0.32500000(400000) 0.00000000 0.58500000(500000) 0.0519 Uiso
C3 C 0.28380000(140000) 0.05940000(110000) 0.73420000(180000) 0.0519 Uiso
C1 C 0.14700000(900000) 0.15000000(800000) 1.00000000 0.0519 Uiso
C2 C 0.19000000(300000) 0.21000000(300000) 1.00000000 0.0519 Uiso
C3 C 0.23420000(180000) 0.21620000(140000) 1.05940000(110000) 0.0519 Uiso
O1 O 0.17200000(400000) 0.08800000(500000) 1.00000000 0.0519 Uiso
O2 O 0.08500000(500000) 0.17500000(400000) 1.00000000 0.0519 Uiso
Zr1 Zr 0.11680000(30000) 0.00000000 1.00000000 0.0104 Uiso
C3 C 0.23420000(180000) 0.21620000(140000) 0.94060000(110000) 0.0519 Uiso
C1 C 0.35300000(900000) 0.35000000(800000) 1.00000000 0.0519 Uiso
C2 C 0.31000000(300000) 0.29000000(300000) 1.00000000 0.0519 Uiso
C3 C 0.26580000(180000) 0.28380000(140000) 1.05940000(110000) 0.0519 Uiso
O1 O 0.32800000(400000) 0.41200000(500000) 1.00000000 0.0519 Uiso
O2 O 0.41500000(500000) 0.32500000(400000) 1.00000000 0.0519 Uiso
C3 C 0.26580000(180000) 0.28380000(140000) 0.94060000(110000) 0.0519 Uiso
C1 C 0.00000000 0.14700000(900000) 0.85000000(800000) 0.0519 Uiso
C2 C 0.00000000 0.19000000(300000) 0.79000000(300000) 0.0519 Uiso
C3 C -0.05940000(110000) 0.23420000(180000) 0.78380000(140000) 0.0519 Uiso
O1 O 0.00000000 0.17200000(400000) 0.91200000(500000) 0.0519 Uiso
O2 O 0.00000000 0.08500000(500000) 0.82500000(400000) 0.0519 Uiso
Zr1 Zr 0.00000000 0.11680000(30000) 1.00000000 0.0104 Uiso
C3 C 0.05940000(110000) 0.23420000(180000) 0.78380000(140000) 0.0519 Uiso
C1 C 0.00000000 0.35300000(900000) 0.65000000(800000) 0.0519 Uiso
C2 C 0.00000000 0.31000000(300000) 0.71000000(300000) 0.0519 Uiso
C3 C -0.05940000(110000) 0.26580000(180000) 0.71620000(140000) 0.0519 Uiso
O1 O 0.00000000 0.32800000(400000) 0.58800000(500000) 0.0519 Uiso
O2 O 0.00000000 0.41500000(500000) 0.67500000(400000) 0.0519 Uiso
C3 C 0.05940000(110000) 0.26580000(180000) 0.71620000(140000) 0.0519 Uiso
O8 O 0.05880000(60000) 0.05880000(60000) 1.05880000(60000) 0.0519 Uiso
O8 O -0.05880000(60000) 0.05880000(60000) 0.94120000(60000) 0.0519 Uiso
O8 O -0.05880000(60000) 0.05880000(60000) 1.05880000(60000) 0.0519 Uiso
O1 O 0.00000000 0.17200000(400000) 1.08800000(500000) 0.0519 Uiso
O1 O -0.08800000(500000) 0.00000000 0.82800000(400000) 0.0519 Uiso
O1 O 0.17200000(400000) -0.08800000(500000) 1.00000000 0.0519 Uiso
O2 O 0.17500000(400000) 0.00000000 1.08500000(500000) 0.0519 Uiso
O2 O -0.08500000(500000) 0.17500000(400000) 1.00000000 0.0519 Uiso
O2 O 0.00000000 -0.08500000(500000) 0.82500000(400000) 0.0519 Uiso
O8 O -0.05880000(60000) -0.05880000(60000) 0.94120000(60000) 0.0519 Uiso
O8 O 0.05880000(60000) -0.05880000(60000) 1.05880000(60000) 0.0519 Uiso
O8 O 0.05880000(60000) -0.05880000(60000) 0.94120000(60000) 0.0519 Uiso
Zr1 Zr 0.00000000 0.00000000 1.11680000(30000) 0.0104 Uiso
Zr1 Zr -0.11680000(30000) 0.00000000 1.00000000 0.0104 Uiso
Zr1 Zr 0.00000000 -0.11680000(30000) 1.00000000 0.0104 Uiso
Zr1 Zr 0.00000000 0.50000000 0.61680000(30000) 0.0104 Uiso
Zr1 Zr 0.50000000 0.00000000 0.61680000(30000) 0.0104 Uiso
Zr1 Zr 0.38320000(30000) 0.50000000 1.00000000 0.0104 Uiso
Zr1 Zr 0.50000000 0.38320000(30000) 1.00000000 0.0104 Uiso
H1 H 0.251659 0 0.841711 . .
H2 H 0.21008 -0.103021 0.794099 . .
H3 H 0.179446 -0.0574539 0.728565 . .
H4 H 0.179446 0.0574539 0.728565 . .
H5 H 0.21008 0.103021 0.794099 . .
H6 H 0.248341 0 0.658289 . .
H7 H 0.320554 -0.0574539 0.771435 . .
H8 H 0.28992 -0.103021 0.705901 . .
H9 H 0.28992 0.103021 0.705901 . .
H10 H 0.320554 0.0574539 0.771435 . .
H11 H 0.158289 0.251659 1 . .
H12 H 0.205901 0.21008 1.10302 . .
H13 H 0.271435 0.179446 1.05745 . .
H14 H 0.271435 0.179446 0.942546 . .
H15 H 0.205901 0.21008 0.896979 . .
H16 H 0.341711 0.248341 1 . .
H17 H 0.228565 0.320554 1.05745 . .
H18 H 0.294099 0.28992 1.10302 . .
H19 H 0.294099 0.28992 0.896979 . .
H20 H 0.228565 0.320554 0.942546 . .
H21 H 0 0.158289 0.748341 . .
H22 H -0.103021 0.205901 0.78992 . .
H23 H -0.0574539 0.271435 0.820554 . .
H24 H 0.0574539 0.271435 0.820554 . .
H25 H 0.103021 0.205901 0.78992 . .
H26 H 0 0.341711 0.751659 . .
H27 H -0.0574539 0.228565 0.679446 . .
H28 H -0.103021 0.294099 0.71008 . .
H29 H 0.103021 0.294099 0.71008 . .
H30 H 0.0574539 0.228565 0.679446 . .
C1 C 0.85000000(800000) 0.00000000 0.14700000(900000) 0.0519 Uiso
C2 C 0.79000000(300000) 0.00000000 0.19000000(300000) 0.0519 Uiso
C3 C 0.78380000(140000) -0.05940000(110000) 0.23420000(180000) 0.0519 Uiso
O1 O 0.91200000(500000) 0.00000000 0.17200000(400000) 0.0519 Uiso
O2 O 0.82500000(400000) 0.00000000 0.08500000(500000) 0.0519 Uiso
O8 O 0.94120000(60000) 0.05880000(60000) 0.05880000(60000) 0.0519 Uiso
Zr1 Zr 1.00000000 0.00000000 0.11680000(30000) 0.0104 Uiso
C3 C 0.78380000(140000) 0.05940000(110000) 0.23420000(180000) 0.0519 Uiso
C1 C 0.65000000(800000) 0.00000000 0.35300000(900000) 0.0519 Uiso
C2 C 0.71000000(300000) 0.00000000 0.31000000(300000) 0.0519 Uiso
C3 C 0.71620000(140000) -0.05940000(110000) 0.26580000(180000) 0.0519 Uiso
O1 O 0.58800000(500000) 0.00000000 0.32800000(400000) 0.0519 Uiso
O2 O 0.67500000(400000) 0.00000000 0.41500000(500000) 0.0519 Uiso
C3 C 0.71620000(140000) 0.05940000(110000) 0.26580000(180000) 0.0519 Uiso
C1 C 0.85300000(900000) 0.15000000(800000) 0.00000000 0.0519 Uiso
C2 C 0.81000000(300000) 0.21000000(300000) 0.00000000 0.0519 Uiso
C3 C 0.76580000(180000) 0.21620000(140000) -0.05940000(110000) 0.0519 Uiso
O1 O 0.82800000(400000) 0.08800000(500000) 0.00000000 0.0519 Uiso
O2 O 0.91500000(500000) 0.17500000(400000) 0.00000000 0.0519 Uiso
Zr1 Zr 0.88320000(30000) 0.00000000 0.00000000 0.0104 Uiso
C3 C 0.76580000(180000) 0.21620000(140000) 0.05940000(110000) 0.0519 Uiso
C1 C 0.64700000(900000) 0.35000000(800000) 0.00000000 0.0519 Uiso
C2 C 0.69000000(300000) 0.29000000(300000) 0.00000000 0.0519 Uiso
C3 C 0.73420000(180000) 0.28380000(140000) -0.05940000(110000) 0.0519 Uiso
O1 O 0.67200000(400000) 0.41200000(500000) 0.00000000 0.0519 Uiso
O2 O 0.58500000(500000) 0.32500000(400000) 0.00000000 0.0519 Uiso
C3 C 0.73420000(180000) 0.28380000(140000) 0.05940000(110000) 0.0519 Uiso
C1 C 1.00000000 0.14700000(900000) 0.15000000(800000) 0.0519 Uiso
C2 C 1.00000000 0.19000000(300000) 0.21000000(300000) 0.0519 Uiso
C3 C 1.05940000(110000) 0.23420000(180000) 0.21620000(140000) 0.0519 Uiso
O1 O 1.00000000 0.17200000(400000) 0.08800000(500000) 0.0519 Uiso
O2 O 1.00000000 0.08500000(500000) 0.17500000(400000) 0.0519 Uiso
Zr1 Zr 1.00000000 0.11680000(30000) 0.00000000 0.0104 Uiso
C3 C 0.94060000(110000) 0.23420000(180000) 0.21620000(140000) 0.0519 Uiso
C1 C 1.00000000 0.35300000(900000) 0.35000000(800000) 0.0519 Uiso
C2 C 1.00000000 0.31000000(300000) 0.29000000(300000) 0.0519 Uiso
C3 C 1.05940000(110000) 0.26580000(180000) 0.28380000(140000) 0.0519 Uiso
O1 O 1.00000000 0.32800000(400000) 0.41200000(500000) 0.0519 Uiso
O2 O 1.00000000 0.41500000(500000) 0.32500000(400000) 0.0519 Uiso
C3 C 0.94060000(110000) 0.26580000(180000) 0.28380000(140000) 0.0519 Uiso
O8 O 0.94120000(60000) 0.05880000(60000) -0.05880000(60000) 0.0519 Uiso
O8 O 1.05880000(60000) 0.05880000(60000) 0.05880000(60000) 0.0519 Uiso
O8 O 1.05880000(60000) 0.05880000(60000) -0.05880000(60000) 0.0519 Uiso
O1 O 1.00000000 0.17200000(400000) -0.08800000(500000) 0.0519 Uiso
O1 O 1.08800000(500000) 0.00000000 0.17200000(400000) 0.0519 Uiso
O1 O 0.82800000(400000) -0.08800000(500000) 0.00000000 0.0519 Uiso
O2 O 0.82500000(400000) 0.00000000 -0.08500000(500000) 0.0519 Uiso
O2 O 1.08500000(500000) 0.17500000(400000) 0.00000000 0.0519 Uiso
O2 O 1.00000000 -0.08500000(500000) 0.17500000(400000) 0.0519 Uiso
O8 O 1.05880000(60000) -0.05880000(60000) 0.05880000(60000) 0.0519 Uiso
O8 O 0.94120000(60000) -0.05880000(60000) -0.05880000(60000) 0.0519 Uiso
O8 O 0.94120000(60000) -0.05880000(60000) 0.05880000(60000) 0.0519 Uiso
Zr1 Zr 1.00000000 0.00000000 -0.11680000(30000) 0.0104 Uiso
Zr1 Zr 1.11680000(30000) 0.00000000 0.00000000 0.0104 Uiso
Zr1 Zr 1.00000000 -0.11680000(30000) 0.00000000 0.0104 Uiso
Zr1 Zr 1.00000000 0.50000000 0.38320000(30000) 0.0104 Uiso
Zr1 Zr 0.61680000(30000) 0.50000000 0.00000000 0.0104 Uiso
Zr1 Zr 0.61680000(30000) 0.00000000 0.50000000 0.0104 Uiso
Zr1 Zr 1.00000000 0.38320000(30000) 0.50000000 0.0104 Uiso
H1 H 0.748341 0 0.158289 . .
H2 H 0.78992 -0.103021 0.205901 . .
H3 H 0.820554 -0.0574539 0.271435 . .
H4 H 0.820554 0.0574539 0.271435 . .
H5 H 0.78992 0.103021 0.205901 . .
H6 H 0.751659 0 0.341711 . .
H7 H 0.679446 -0.0574539 0.228565 . .
H8 H 0.71008 -0.103021 0.294099 . .
H9 H 0.71008 0.103021 0.294099 . .
H10 H 0.679446 0.0574539 0.228565 . .
H11 H 0.841711 0.251659 0 . .
H12 H 0.794099 0.21008 -0.103021 . .
H13 H 0.728565 0.179446 -0.0574539 . .
H14 H 0.728565 0.179446 0.0574539 . .
H15 H 0.794099 0.21008 0.103021 . .
H16 H 0.658289 0.248341 0 . .
H17 H 0.771435 0.320554 -0.0574539 . .
H18 H 0.705901 0.28992 -0.103021 . .
H19 H 0.705901 0.28992 0.103021 . .
H20 H 0.771435 0.320554 0.0574539 . .
H21 H 1 0.158289 0.251659 . .
H22 H 1.10302 0.205901 0.21008 . .
H23 H 1.05745 0.271435 0.179446 . .
H24 H 0.942546 0.271435 0.179446 . .
H25 H 0.896979 0.205901 0.21008 . .
H26 H 1 0.341711 0.248341 . .
H27 H 1.05745 0.228565 0.320554 . .
H28 H 1.10302 0.294099 0.28992 . .
H29 H 0.896979 0.294099 0.28992 . .
H30 H 0.942546 0.228565 0.320554 . .
C1 C 0.85000000(800000) 0.00000000 0.85300000(900000) 0.0519 Uiso
C2 C 0.79000000(300000) 0.00000000 0.81000000(300000) 0.0519 Uiso
C3 C 0.78380000(140000) -0.05940000(110000) 0.76580000(180000) 0.0519 Uiso
O1 O 0.91200000(500000) 0.00000000 0.82800000(400000) 0.0519 Uiso
O2 O 0.82500000(400000) 0.00000000 0.91500000(500000) 0.0519 Uiso
O8 O 0.94120000(60000) 0.05880000(60000) 0.94120000(60000) 0.0519 Uiso
Zr1 Zr 1.00000000 0.00000000 0.88320000(30000) 0.0104 Uiso
C3 C 0.78380000(140000) 0.05940000(110000) 0.76580000(180000) 0.0519 Uiso
C1 C 0.65000000(800000) 0.00000000 0.64700000(900000) 0.0519 Uiso
C2 C 0.71000000(300000) 0.00000000 0.69000000(300000) 0.0519 Uiso
C3 C 0.71620000(140000) -0.05940000(110000) 0.73420000(180000) 0.0519 Uiso
O1 O 0.58800000(500000) 0.00000000 0.67200000(400000) 0.0519 Uiso
O2 O 0.67500000(400000) 0.00000000 0.58500000(500000) 0.0519 Uiso
C3 C 0.71620000(140000) 0.05940000(110000) 0.73420000(180000) 0.0519 Uiso
C1 C 0.85300000(900000) 0.15000000(800000) 1.00000000 0.0519 Uiso
C2 C 0.81000000(300000) 0.21000000(300000) 1.00000000 0.0519 Uiso
C3 C 0.76580000(180000) 0.21620000(140000) 1.05940000(110000) 0.0519 Uiso
O1 O 0.82800000(400000) 0.08800000(500000) 1.00000000 0.0519 Uiso
O2 O 0.91500000(500000) 0.17500000(400000) 1.00000000 0.0519 Uiso
Zr1 Zr 0.88320000(30000) 0.00000000 1.00000000 0.0104 Uiso
C3 C 0.76580000(180000) 0.21620000(140000) 0.94060000(110000) 0.0519 Uiso
C1 C 0.64700000(900000) 0.35000000(800000) 1.00000000 0.0519 Uiso
C2 C 0.69000000(300000) 0.29000000(300000) 1.00000000 0.0519 Uiso
C3 C 0.73420000(180000) 0.28380000(140000) 1.05940000(110000) 0.0519 Uiso
O1 O 0.67200000(400000) 0.41200000(500000) 1.00000000 0.0519 Uiso
O2 O 0.58500000(500000) 0.32500000(400000) 1.00000000 0.0519 Uiso
C3 C 0.73420000(180000) 0.28380000(140000) 0.94060000(110000) 0.0519 Uiso
C1 C 1.00000000 0.14700000(900000) 0.85000000(800000) 0.0519 Uiso
C2 C 1.00000000 0.19000000(300000) 0.79000000(300000) 0.0519 Uiso
C3 C 1.05940000(110000) 0.23420000(180000) 0.78380000(140000) 0.0519 Uiso
O1 O 1.00000000 0.17200000(400000) 0.91200000(500000) 0.0519 Uiso
O2 O 1.00000000 0.08500000(500000) 0.82500000(400000) 0.0519 Uiso
Zr1 Zr 1.00000000 0.11680000(30000) 1.00000000 0.0104 Uiso
C3 C 0.94060000(110000) 0.23420000(180000) 0.78380000(140000) 0.0519 Uiso
C1 C 1.00000000 0.35300000(900000) 0.65000000(800000) 0.0519 Uiso
C2 C 1.00000000 0.31000000(300000) 0.71000000(300000) 0.0519 Uiso
C3 C 1.05940000(110000) 0.26580000(180000) 0.71620000(140000) 0.0519 Uiso
O1 O 1.00000000 0.32800000(400000) 0.58800000(500000) 0.0519 Uiso
O2 O 1.00000000 0.41500000(500000) 0.67500000(400000) 0.0519 Uiso
C3 C 0.94060000(110000) 0.26580000(180000) 0.71620000(140000) 0.0519 Uiso
O8 O 0.94120000(60000) 0.05880000(60000) 1.05880000(60000) 0.0519 Uiso
O8 O 1.05880000(60000) 0.05880000(60000) 0.94120000(60000) 0.0519 Uiso
O8 O 1.05880000(60000) 0.05880000(60000) 1.05880000(60000) 0.0519 Uiso
O1 O 1.00000000 0.17200000(400000) 1.08800000(500000) 0.0519 Uiso
O1 O 1.08800000(500000) 0.00000000 0.82800000(400000) 0.0519 Uiso
O1 O 0.82800000(400000) -0.08800000(500000) 1.00000000 0.0519 Uiso
O2 O 0.82500000(400000) 0.00000000 1.08500000(500000) 0.0519 Uiso
O2 O 1.08500000(500000) 0.17500000(400000) 1.00000000 0.0519 Uiso
O2 O 1.00000000 -0.08500000(500000) 0.82500000(400000) 0.0519 Uiso
O8 O 1.05880000(60000) -0.05880000(60000) 0.94120000(60000) 0.0519 Uiso
O8 O 0.94120000(60000) -0.05880000(60000) 1.05880000(60000) 0.0519 Uiso
O8 O 0.94120000(60000) -0.05880000(60000) 0.94120000(60000) 0.0519 Uiso
Zr1 Zr 1.00000000 0.00000000 1.11680000(30000) 0.0104 Uiso
Zr1 Zr 1.11680000(30000) 0.00000000 1.00000000 0.0104 Uiso
Zr1 Zr 1.00000000 -0.11680000(30000) 1.00000000 0.0104 Uiso
Zr1 Zr 1.00000000 0.50000000 0.61680000(30000) 0.0104 Uiso
Zr1 Zr 0.61680000(30000) 0.50000000 1.00000000 0.0104 Uiso
H1 H 0.748341 0 0.841711 . .
H2 H 0.78992 -0.103021 0.794099 . .
H3 H 0.820554 -0.0574539 0.728565 . .
H4 H 0.820554 0.0574539 0.728565 . .
H5 H 0.78992 0.103021 0.794099 . .
H6 H 0.751659 0 0.658289 . .
H7 H 0.679446 -0.0574539 0.771435 . .
H8 H 0.71008 -0.103021 0.705901 . .
H9 H 0.71008 0.103021 0.705901 . .
H10 H 0.679446 0.0574539 0.771435 . .
H11 H 0.841711 0.251659 1 . .
H12 H 0.794099 0.21008 1.10302 . .
H13 H 0.728565 0.179446 1.05745 . .
H14 H 0.728565 0.179446 0.942546 . .
H15 H 0.794099 0.21008 0.896979 . .
H16 H 0.658289 0.248341 1 . .
H17 H 0.771435 0.320554 1.05745 . .
H18 H 0.705901 0.28992 1.10302 . .
H19 H 0.705901 0.28992 0.896979 . .
H20 H 0.771435 0.320554 0.942546 . .
H21 H 1 0.158289 0.748341 . .
H22 H 1.10302 0.205901 0.78992 . .
H23 H 1.05745 0.271435 0.820554 . .
H24 H 0.942546 0.271435 0.820554 . .
H25 H 0.896979 0.205901 0.78992 . .
H26 H 1 0.341711 0.751659 . .
H27 H 1.05745 0.228565 0.679446 . .
H28 H 1.10302 0.294099 0.71008 . .
H29 H 0.896979 0.294099 0.71008 . .
H30 H 0.942546 0.228565 0.679446 . .
C1 C 0.85000000(800000) 1.00000000 0.85300000(900000) 0.0519 Uiso
C2 C 0.79000000(300000) 1.00000000 0.81000000(300000) 0.0519 Uiso
C3 C 0.78380000(140000) 1.05940000(110000) 0.76580000(180000) 0.0519 Uiso
O1 O 0.91200000(500000) 1.00000000 0.82800000(400000) 0.0519 Uiso
O2 O 0.82500000(400000) 1.00000000 0.91500000(500000) 0.0519 Uiso
O8 O 0.94120000(60000) 0.94120000(60000) 0.94120000(60000) 0.0519 Uiso
Zr1 Zr 1.00000000 1.00000000 0.88320000(30000) 0.0104 Uiso
C3 C 0.78380000(140000) 0.94060000(110000) 0.76580000(180000) 0.0519 Uiso
C1 C 0.65000000(800000) 1.00000000 0.64700000(900000) 0.0519 Uiso
C2 C 0.71000000(300000) 1.00000000 0.69000000(300000) 0.0519 Uiso
C3 C 0.71620000(140000) 1.05940000(110000) 0.73420000(180000) 0.0519 Uiso
O1 O 0.58800000(500000) 1.00000000 0.67200000(400000) 0.0519 Uiso
O2 O 0.67500000(400000) 1.00000000 0.58500000(500000) 0.0519 Uiso
C3 C 0.71620000(140000) 0.94060000(110000) 0.73420000(180000) 0.0519 Uiso
C1 C 0.85300000(900000) 0.85000000(800000) 1.00000000 0.0519 Uiso
C2 C 0.81000000(300000) 0.79000000(300000) 1.00000000 0.0519 Uiso
C3 C 0.76580000(180000) 0.78380000(140000) 1.05940000(110000) 0.0519 Uiso
O1 O 0.82800000(400000) 0.91200000(500000) 1.00000000 0.0519 Uiso
O2 O 0.91500000(500000) 0.82500000(400000) 1.00000000 0.0519 Uiso
Zr1 Zr 0.88320000(30000) 1.00000000 1.00000000 0.0104 Uiso
C3 C 0.76580000(180000) 0.78380000(140000) 0.94060000(110000) 0.0519 Uiso
C1 C 0.64700000(900000) 0.65000000(800000) 1.00000000 0.0519 Uiso
C2 C 0.69000000(300000) 0.71000000(300000) 1.00000000 0.0519 Uiso
C3 C 0.73420000(180000) 0.71620000(140000) 1.05940000(110000) 0.0519 Uiso
O1 O 0.67200000(400000) 0.58800000(500000) 1.00000000 0.0519 Uiso
O2 O 0.58500000(500000) 0.67500000(400000) 1.00000000 0.0519 Uiso
C3 C 0.73420000(180000) 0.71620000(140000) 0.94060000(110000) 0.0519 Uiso
C1 C 1.00000000 0.85300000(900000) 0.85000000(800000) 0.0519 Uiso
C2 C 1.00000000 0.81000000(300000) 0.79000000(300000) 0.0519 Uiso
C3 C 1.05940000(110000) 0.76580000(180000) 0.78380000(140000) 0.0519 Uiso
O1 O 1.00000000 0.82800000(400000) 0.91200000(500000) 0.0519 Uiso
O2 O 1.00000000 0.91500000(500000) 0.82500000(400000) 0.0519 Uiso
Zr1 Zr 1.00000000 0.88320000(30000) 1.00000000 0.0104 Uiso
C3 C 0.94060000(110000) 0.76580000(180000) 0.78380000(140000) 0.0519 Uiso
C1 C 1.00000000 0.64700000(900000) 0.65000000(800000) 0.0519 Uiso
C2 C 1.00000000 0.69000000(300000) 0.71000000(300000) 0.0519 Uiso
C3 C 1.05940000(110000) 0.73420000(180000) 0.71620000(140000) 0.0519 Uiso
O1 O 1.00000000 0.67200000(400000) 0.58800000(500000) 0.0519 Uiso
O2 O 1.00000000 0.58500000(500000) 0.67500000(400000) 0.0519 Uiso
C3 C 0.94060000(110000) 0.73420000(180000) 0.71620000(140000) 0.0519 Uiso
O8 O 0.94120000(60000) 0.94120000(60000) 1.05880000(60000) 0.0519 Uiso
O8 O 1.05880000(60000) 0.94120000(60000) 0.94120000(60000) 0.0519 Uiso
O8 O 1.05880000(60000) 0.94120000(60000) 1.05880000(60000) 0.0519 Uiso
O1 O 1.00000000 0.82800000(400000) 1.08800000(500000) 0.0519 Uiso
O1 O 1.08800000(500000) 1.00000000 0.82800000(400000) 0.0519 Uiso
O1 O 0.82800000(400000) 1.08800000(500000) 1.00000000 0.0519 Uiso
O2 O 0.82500000(400000) 1.00000000 1.08500000(500000) 0.0519 Uiso
O2 O 1.08500000(500000) 0.82500000(400000) 1.00000000 0.0519 Uiso
O2 O 1.00000000 1.08500000(500000) 0.82500000(400000) 0.0519 Uiso
O8 O 1.05880000(60000) 1.05880000(60000) 0.94120000(60000) 0.0519 Uiso
O8 O 0.94120000(60000) 1.05880000(60000) 1.05880000(60000) 0.0519 Uiso
O8 O 0.94120000(60000) 1.05880000(60000) 0.94120000(60000) 0.0519 Uiso
Zr1 Zr 1.00000000 1.00000000 1.11680000(30000) 0.0104 Uiso
Zr1 Zr 1.11680000(30000) 1.00000000 1.00000000 0.0104 Uiso
Zr1 Zr 1.00000000 1.11680000(30000) 1.00000000 0.0104 Uiso
Zr1 Zr 0.50000000 1.00000000 0.61680000(30000) 0.0104 Uiso
Zr1 Zr 0.61680000(30000) 1.00000000 0.50000000 0.0104 Uiso
Zr1 Zr 1.00000000 0.61680000(30000) 0.50000000 0.0104 Uiso
Zr1 Zr 0.50000000 0.61680000(30000) 1.00000000 0.0104 Uiso
H1 H 0.748341 1 0.841711 . .
H2 H 0.78992 1.10302 0.794099 . .
H3 H 0.820554 1.05745 0.728565 . .
H4 H 0.820554 0.942546 0.728565 . .
H5 H 0.78992 0.896979 0.794099 . .
H6 H 0.751659 1 0.658289 . .
H7 H 0.679446 1.05745 0.771435 . .
H8 H 0.71008 1.10302 0.705901 . .
H9 H 0.71008 0.896979 0.705901 . .
H10 H 0.679446 0.942546 0.771435 . .
H11 H 0.841711 0.748341 1 . .
H12 H 0.794099 0.78992 1.10302 . .
H13 H 0.728565 0.820554 1.05745 . .
H14 H 0.728565 0.820554 0.942546 . .
H15 H 0.794099 0.78992 0.896979 . .
H16 H 0.658289 0.751659 1 . .
H17 H 0.771435 0.679446 1.05745 . .
H18 H 0.705901 0.71008 1.10302 . .
H19 H 0.705901 0.71008 0.896979 . .
H20 H 0.771435 0.679446 0.942546 . .
H21 H 1 0.841711 0.748341 . .
H22 H 1.10302 0.794099 0.78992 . .
H23 H 1.05745 0.728565 0.820554 . .
H24 H 0.942546 0.728565 0.820554 . .
H25 H 0.896979 0.794099 0.78992 . .
H26 H 1 0.658289 0.751659 . .
H27 H 1.05745 0.771435 0.679446 . .
H28 H 1.10302 0.705901 0.71008 . .
H29 H 0.896979 0.705901 0.71008 . .
H30 H 0.942546 0.771435 0.679446 . .
C1 C 0.85000000(800000) 1.00000000 0.14700000(900000) 0.0519 Uiso
C2 C 0.79000000(300000) 1.00000000 0.19000000(300000) 0.0519 Uiso
C3 C 0.78380000(140000) 1.05940000(110000) 0.23420000(180000) 0.0519 Uiso
O1 O 0.91200000(500000) 1.00000000 0.17200000(400000) 0.0519 Uiso
O2 O 0.82500000(400000) 1.00000000 0.08500000(500000) 0.0519 Uiso
O8 O 0.94120000(60000) 0.94120000(60000) 0.05880000(60000) 0.0519 Uiso
Zr1 Zr 1.00000000 1.00000000 0.11680000(30000) 0.0104 Uiso
C3 C 0.78380000(140000) 0.94060000(110000) 0.23420000(180000) 0.0519 Uiso
C1 C 0.65000000(800000) 1.00000000 0.35300000(900000) 0.0519 Uiso
C2 C 0.71000000(300000) 1.00000000 0.31000000(300000) 0.0519 Uiso
C3 C 0.71620000(140000) 1.05940000(110000) 0.26580000(180000) 0.0519 Uiso
O1 O 0.58800000(500000) 1.00000000 0.32800000(400000) 0.0519 Uiso
O2 O 0.67500000(400000) 1.00000000 0.41500000(500000) 0.0519 Uiso
C3 C 0.71620000(140000) 0.94060000(110000) 0.26580000(180000) 0.0519 Uiso
C1 C 0.85300000(900000) 0.85000000(800000) 0.00000000 0.0519 Uiso
C2 C 0.81000000(300000) 0.79000000(300000) 0.00000000 0.0519 Uiso
C3 C 0.76580000(180000) 0.78380000(140000) -0.05940000(110000) 0.0519 Uiso
O1 O 0.82800000(400000) 0.91200000(500000) 0.00000000 0.0519 Uiso
O2 O 0.91500000(500000) 0.82500000(400000) 0.00000000 0.0519 Uiso
Zr1 Zr 0.88320000(30000) 1.00000000 0.00000000 0.0104 Uiso
C3 C 0.76580000(180000) 0.78380000(140000) 0.05940000(110000) 0.0519 Uiso
C1 C 0.64700000(900000) 0.65000000(800000) 0.00000000 0.0519 Uiso
C2 C 0.69000000(300000) 0.71000000(300000) 0.00000000 0.0519 Uiso
C3 C 0.73420000(180000) 0.71620000(140000) -0.05940000(110000) 0.0519 Uiso
O1 O 0.67200000(400000) 0.58800000(500000) 0.00000000 0.0519 Uiso
O2 O 0.58500000(500000) 0.67500000(400000) 0.00000000 0.0519 Uiso
C3 C 0.73420000(180000) 0.71620000(140000) 0.05940000(110000) 0.0519 Uiso
C1 C 1.00000000 0.85300000(900000) 0.15000000(800000) 0.0519 Uiso
C2 C 1.00000000 0.81000000(300000) 0.21000000(300000) 0.0519 Uiso
C3 C 1.05940000(110000) 0.76580000(180000) 0.21620000(140000) 0.0519 Uiso
O1 O 1.00000000 0.82800000(400000) 0.08800000(500000) 0.0519 Uiso
O2 O 1.00000000 0.91500000(500000) 0.17500000(400000) 0.0519 Uiso
Zr1 Zr 1.00000000 0.88320000(30000) 0.00000000 0.0104 Uiso
C3 C 0.94060000(110000) 0.76580000(180000) 0.21620000(140000) 0.0519 Uiso
C1 C 1.00000000 0.64700000(900000) 0.35000000(800000) 0.0519 Uiso
C2 C 1.00000000 0.69000000(300000) 0.29000000(300000) 0.0519 Uiso
C3 C 1.05940000(110000) 0.73420000(180000) 0.28380000(140000) 0.0519 Uiso
O1 O 1.00000000 0.67200000(400000) 0.41200000(500000) 0.0519 Uiso
O2 O 1.00000000 0.58500000(500000) 0.32500000(400000) 0.0519 Uiso
C3 C 0.94060000(110000) 0.73420000(180000) 0.28380000(140000) 0.0519 Uiso
O8 O 0.94120000(60000) 0.94120000(60000) -0.05880000(60000) 0.0519 Uiso
O8 O 1.05880000(60000) 0.94120000(60000) 0.05880000(60000) 0.0519 Uiso
O8 O 1.05880000(60000) 0.94120000(60000) -0.05880000(60000) 0.0519 Uiso
O1 O 1.00000000 0.82800000(400000) -0.08800000(500000) 0.0519 Uiso
O1 O 1.08800000(500000) 1.00000000 0.17200000(400000) 0.0519 Uiso
O1 O 0.82800000(400000) 1.08800000(500000) 0.00000000 0.0519 Uiso
O2 O 0.82500000(400000) 1.00000000 -0.08500000(500000) 0.0519 Uiso
O2 O 1.08500000(500000) 0.82500000(400000) 0.00000000 0.0519 Uiso
O2 O 1.00000000 1.08500000(500000) 0.17500000(400000) 0.0519 Uiso
O8 O 1.05880000(60000) 1.05880000(60000) 0.05880000(60000) 0.0519 Uiso
O8 O 0.94120000(60000) 1.05880000(60000) -0.05880000(60000) 0.0519 Uiso
O8 O 0.94120000(60000) 1.05880000(60000) 0.05880000(60000) 0.0519 Uiso
Zr1 Zr 1.00000000 1.00000000 -0.11680000(30000) 0.0104 Uiso
Zr1 Zr 1.11680000(30000) 1.00000000 0.00000000 0.0104 Uiso
Zr1 Zr 1.00000000 1.11680000(30000) 0.00000000 0.0104 Uiso
Zr1 Zr 0.50000000 1.00000000 0.38320000(30000) 0.0104 Uiso
Zr1 Zr 0.50000000 0.61680000(30000) 0.00000000 0.0104 Uiso
H1 H 0.748341 1 0.158289 . .
H2 H 0.78992 1.10302 0.205901 . .
H3 H 0.820554 1.05745 0.271435 . .
H4 H 0.820554 0.942546 0.271435 . .
H5 H 0.78992 0.896979 0.205901 . .
H6 H 0.751659 1 0.341711 . .
H7 H 0.679446 1.05745 0.228565 . .
H8 H 0.71008 1.10302 0.294099 . .
H9 H 0.71008 0.896979 0.294099 . .
H10 H 0.679446 0.942546 0.228565 . .
H11 H 0.841711 0.748341 0 . .
H12 H 0.794099 0.78992 -0.103021 . .
H13 H 0.728565 0.820554 -0.0574539 . .
H14 H 0.728565 0.820554 0.0574539 . .
H15 H 0.794099 0.78992 0.103021 . .
H16 H 0.658289 0.751659 0 . .
H17 H 0.771435 0.679446 -0.0574539 . .
H18 H 0.705901 0.71008 -0.103021 . .
H19 H 0.705901 0.71008 0.103021 . .
H20 H 0.771435 0.679446 0.0574539 . .
H21 H 1 0.841711 0.251659 . .
H22 H 1.10302 0.794099 0.21008 . .
H23 H 1.05745 0.728565 0.179446 . .
H24 H 0.942546 0.728565 0.179446 . .
H25 H 0.896979 0.794099 0.21008 . .
H26 H 1 0.658289 0.248341 . .
H27 H 1.05745 0.771435 0.320554 . .
H28 H 1.10302 0.705901 0.28992 . .
H29 H 0.896979 0.705901 0.28992 . .
H30 H 0.942546 0.771435 0.320554 . .
C1 C 0.15000000(800000) 1.00000000 0.85300000(900000) 0.0519 Uiso
C2 C 0.21000000(300000) 1.00000000 0.81000000(300000) 0.0519 Uiso
C3 C 0.21620000(140000) 1.05940000(110000) 0.76580000(180000) 0.0519 Uiso
O1 O 0.08800000(500000) 1.00000000 0.82800000(400000) 0.0519 Uiso
O2 O 0.17500000(400000) 1.00000000 0.91500000(500000) 0.0519 Uiso
O8 O 0.05880000(60000) 0.94120000(60000) 0.94120000(60000) 0.0519 Uiso
Zr1 Zr 0.00000000 1.00000000 0.88320000(30000) 0.0104 Uiso
C3 C 0.21620000(140000) 0.94060000(110000) 0.76580000(180000) 0.0519 Uiso
C1 C 0.35000000(800000) 1.00000000 0.64700000(900000) 0.0519 Uiso
C2 C 0.29000000(300000) 1.00000000 0.69000000(300000) 0.0519 Uiso
C3 C 0.28380000(140000) 1.05940000(110000) 0.73420000(180000) 0.0519 Uiso
O1 O 0.41200000(500000) 1.00000000 0.67200000(400000) 0.0519 Uiso
O2 O 0.32500000(400000) 1.00000000 0.58500000(500000) 0.0519 Uiso
C3 C 0.28380000(140000) 0.94060000(110000) 0.73420000(180000) 0.0519 Uiso
C1 C 0.14700000(900000) 0.85000000(800000) 1.00000000 0.0519 Uiso
C2 C 0.19000000(300000) 0.79000000(300000) 1.00000000 0.0519 Uiso
C3 C 0.23420000(180000) 0.78380000(140000) 1.05940000(110000) 0.0519 Uiso
O1 O 0.17200000(400000) 0.91200000(500000) 1.00000000 0.0519 Uiso
O2 O 0.08500000(500000) 0.82500000(400000) 1.00000000 0.0519 Uiso
Zr1 Zr 0.11680000(30000) 1.00000000 1.00000000 0.0104 Uiso
C3 C 0.23420000(180000) 0.78380000(140000) 0.94060000(110000) 0.0519 Uiso
C1 C 0.35300000(900000) 0.65000000(800000) 1.00000000 0.0519 Uiso
C2 C 0.31000000(300000) 0.71000000(300000) 1.00000000 0.0519 Uiso
C3 C 0.26580000(180000) 0.71620000(140000) 1.05940000(110000) 0.0519 Uiso
O1 O 0.32800000(400000) 0.58800000(500000) 1.00000000 0.0519 Uiso
O2 O 0.41500000(500000) 0.67500000(400000) 1.00000000 0.0519 Uiso
C3 C 0.26580000(180000) 0.71620000(140000) 0.94060000(110000) 0.0519 Uiso
C1 C 0.00000000 0.85300000(900000) 0.85000000(800000) 0.0519 Uiso
C2 C 0.00000000 0.81000000(300000) 0.79000000(300000) 0.0519 Uiso
C3 C -0.05940000(110000) 0.76580000(180000) 0.78380000(140000) 0.0519 Uiso
O1 O 0.00000000 0.82800000(400000) 0.91200000(500000) 0.0519 Uiso
O2 O 0.00000000 0.91500000(500000) 0.82500000(400000) 0.0519 Uiso
Zr1 Zr 0.00000000 0.88320000(30000) 1.00000000 0.0104 Uiso
C3 C 0.05940000(110000) 0.76580000(180000) 0.78380000(140000) 0.0519 Uiso
C1 C 0.00000000 0.64700000(900000) 0.65000000(800000) 0.0519 Uiso
C2 C 0.00000000 0.69000000(300000) 0.71000000(300000) 0.0519 Uiso
C3 C -0.05940000(110000) 0.73420000(180000) 0.71620000(140000) 0.0519 Uiso
O1 O 0.00000000 0.67200000(400000) 0.58800000(500000) 0.0519 Uiso
O2 O 0.00000000 0.58500000(500000) 0.67500000(400000) 0.0519 Uiso
C3 C 0.05940000(110000) 0.73420000(180000) 0.71620000(140000) 0.0519 Uiso
O8 O 0.05880000(60000) 0.94120000(60000) 1.05880000(60000) 0.0519 Uiso
O8 O -0.05880000(60000) 0.94120000(60000) 0.94120000(60000) 0.0519 Uiso
O8 O -0.05880000(60000) 0.94120000(60000) 1.05880000(60000) 0.0519 Uiso
O1 O 0.00000000 0.82800000(400000) 1.08800000(500000) 0.0519 Uiso
O1 O -0.08800000(500000) 1.00000000 0.82800000(400000) 0.0519 Uiso
O1 O 0.17200000(400000) 1.08800000(500000) 1.00000000 0.0519 Uiso
O2 O 0.17500000(400000) 1.00000000 1.08500000(500000) 0.0519 Uiso
O2 O -0.08500000(500000) 0.82500000(400000) 1.00000000 0.0519 Uiso
O2 O 0.00000000 1.08500000(500000) 0.82500000(400000) 0.0519 Uiso
O8 O -0.05880000(60000) 1.05880000(60000) 0.94120000(60000) 0.0519 Uiso
O8 O 0.05880000(60000) 1.05880000(60000) 1.05880000(60000) 0.0519 Uiso
O8 O 0.05880000(60000) 1.05880000(60000) 0.94120000(60000) 0.0519 Uiso
Zr1 Zr 0.00000000 1.00000000 1.11680000(30000) 0.0104 Uiso
Zr1 Zr -0.11680000(30000) 1.00000000 1.00000000 0.0104 Uiso
Zr1 Zr 0.00000000 1.11680000(30000) 1.00000000 0.0104 Uiso
Zr1 Zr 0.38320000(30000) 1.00000000 0.50000000 0.0104 Uiso
Zr1 Zr 0.00000000 0.61680000(30000) 0.50000000 0.0104 Uiso
H1 H 0.251659 1 0.841711 . .
H2 H 0.21008 1.10302 0.794099 . .
H3 H 0.179446 1.05745 0.728565 . .
H4 H 0.179446 0.942546 0.728565 . .
H5 H 0.21008 0.896979 0.794099 . .
H6 H 0.248341 1 0.658289 . .
H7 H 0.320554 1.05745 0.771435 . .
H8 H 0.28992 1.10302 0.705901 . .
H9 H 0.28992 0.896979 0.705901 . .
H10 H 0.320554 0.942546 0.771435 . .
H11 H 0.158289 0.748341 1 . .
H12 H 0.205901 0.78992 1.10302 . .
H13 H 0.271435 0.820554 1.05745 . .
H14 H 0.271435 0.820554 0.942546 . .
H15 H 0.205901 0.78992 0.896979 . .
H16 H 0.341711 0.751659 1 . .
H17 H 0.228565 0.679446 1.05745 . .
H18 H 0.294099 0.71008 1.10302 . .
H19 H 0.294099 0.71008 0.896979 . .
H20 H 0.228565 0.679446 0.942546 . .
H21 H 0 0.841711 0.748341 . .
H22 H -0.103021 0.794099 0.78992 . .
H23 H -0.0574539 0.728565 0.820554 . .
H24 H 0.0574539 0.728565 0.820554 . .
H25 H 0.103021 0.794099 0.78992 . .
H26 H 0 0.658289 0.751659 . .
H27 H -0.0574539 0.771435 0.679446 . .
H28 H -0.103021 0.705901 0.71008 . .
H29 H 0.103021 0.705901 0.71008 . .
H30 H 0.0574539 0.771435 0.679446 . .
C1 C 0.15000000(800000) 1.00000000 0.14700000(900000) 0.0519 Uiso
C2 C 0.21000000(300000) 1.00000000 0.19000000(300000) 0.0519 Uiso
C3 C 0.21620000(140000) 1.05940000(110000) 0.23420000(180000) 0.0519 Uiso
O1 O 0.08800000(500000) 1.00000000 0.17200000(400000) 0.0519 Uiso
O2 O 0.17500000(400000) 1.00000000 0.08500000(500000) 0.0519 Uiso
O8 O 0.05880000(60000) 0.94120000(60000) 0.05880000(60000) 0.0519 Uiso
Zr1 Zr 0.00000000 1.00000000 0.11680000(30000) 0.0104 Uiso
C3 C 0.21620000(140000) 0.94060000(110000) 0.23420000(180000) 0.0519 Uiso
C1 C 0.35000000(800000) 1.00000000 0.35300000(900000) 0.0519 Uiso
C2 C 0.29000000(300000) 1.00000000 0.31000000(300000) 0.0519 Uiso
C3 C 0.28380000(140000) 1.05940000(110000) 0.26580000(180000) 0.0519 Uiso
O1 O 0.41200000(500000) 1.00000000 0.32800000(400000) 0.0519 Uiso
O2 O 0.32500000(400000) 1.00000000 0.41500000(500000) 0.0519 Uiso
C3 C 0.28380000(140000) 0.94060000(110000) 0.26580000(180000) 0.0519 Uiso
C1 C 0.14700000(900000) 0.85000000(800000) 0.00000000 0.0519 Uiso
C2 C 0.19000000(300000) 0.79000000(300000) 0.00000000 0.0519 Uiso
C3 C 0.23420000(180000) 0.78380000(140000) -0.05940000(110000) 0.0519 Uiso
O1 O 0.17200000(400000) 0.91200000(500000) 0.00000000 0.0519 Uiso
O2 O 0.08500000(500000) 0.82500000(400000) 0.00000000 0.0519 Uiso
Zr1 Zr 0.11680000(30000) 1.00000000 0.00000000 0.0104 Uiso
C3 C 0.23420000(180000) 0.78380000(140000) 0.05940000(110000) 0.0519 Uiso
C1 C 0.35300000(900000) 0.65000000(800000) 0.00000000 0.0519 Uiso
C2 C 0.31000000(300000) 0.71000000(300000) 0.00000000 0.0519 Uiso
C3 C 0.26580000(180000) 0.71620000(140000) -0.05940000(110000) 0.0519 Uiso
O1 O 0.32800000(400000) 0.58800000(500000) 0.00000000 0.0519 Uiso
O2 O 0.41500000(500000) 0.67500000(400000) 0.00000000 0.0519 Uiso
C3 C 0.26580000(180000) 0.71620000(140000) 0.05940000(110000) 0.0519 Uiso
C1 C 0.00000000 0.85300000(900000) 0.15000000(800000) 0.0519 Uiso
C2 C 0.00000000 0.81000000(300000) 0.21000000(300000) 0.0519 Uiso
C3 C -0.05940000(110000) 0.76580000(180000) 0.21620000(140000) 0.0519 Uiso
O1 O 0.00000000 0.82800000(400000) 0.08800000(500000) 0.0519 Uiso
O2 O 0.00000000 0.91500000(500000) 0.17500000(400000) 0.0519 Uiso
Zr1 Zr 0.00000000 0.88320000(30000) 0.00000000 0.0104 Uiso
C3 C 0.05940000(110000) 0.76580000(180000) 0.21620000(140000) 0.0519 Uiso
C1 C 0.00000000 0.64700000(900000) 0.35000000(800000) 0.0519 Uiso
C2 C 0.00000000 0.69000000(300000) 0.29000000(300000) 0.0519 Uiso
C3 C -0.05940000(110000) 0.73420000(180000) 0.28380000(140000) 0.0519 Uiso
O1 O 0.00000000 0.67200000(400000) 0.41200000(500000) 0.0519 Uiso
O2 O 0.00000000 0.58500000(500000) 0.32500000(400000) 0.0519 Uiso
C3 C 0.05940000(110000) 0.73420000(180000) 0.28380000(140000) 0.0519 Uiso
O8 O 0.05880000(60000) 0.94120000(60000) -0.05880000(60000) 0.0519 Uiso
O8 O -0.05880000(60000) 0.94120000(60000) 0.05880000(60000) 0.0519 Uiso
O8 O -0.05880000(60000) 0.94120000(60000) -0.05880000(60000) 0.0519 Uiso
O1 O 0.00000000 0.82800000(400000) -0.08800000(500000) 0.0519 Uiso
O1 O -0.08800000(500000) 1.00000000 0.17200000(400000) 0.0519 Uiso
O1 O 0.17200000(400000) 1.08800000(500000) 0.00000000 0.0519 Uiso
O2 O 0.17500000(400000) 1.00000000 -0.08500000(500000) 0.0519 Uiso
O2 O -0.08500000(500000) 0.82500000(400000) 0.00000000 0.0519 Uiso
O2 O 0.00000000 1.08500000(500000) 0.17500000(400000) 0.0519 Uiso
O8 O -0.05880000(60000) 1.05880000(60000) 0.05880000(60000) 0.0519 Uiso
O8 O 0.05880000(60000) 1.05880000(60000) -0.05880000(60000) 0.0519 Uiso
O8 O 0.05880000(60000) 1.05880000(60000) 0.05880000(60000) 0.0519 Uiso
Zr1 Zr 0.00000000 1.00000000 -0.11680000(30000) 0.0104 Uiso
Zr1 Zr -0.11680000(30000) 1.00000000 0.00000000 0.0104 Uiso
Zr1 Zr 0.00000000 1.11680000(30000) 0.00000000 0.0104 Uiso
H1 H 0.251659 1 0.158289 . .
H2 H 0.21008 1.10302 0.205901 . .
H3 H 0.179446 1.05745 0.271435 . .
H4 H 0.179446 0.942546 0.271435 . .
H5 H 0.21008 0.896979 0.205901 . .
H6 H 0.248341 1 0.341711 . .
H7 H 0.320554 1.05745 0.228565 . .
H8 H 0.28992 1.10302 0.294099 . .
H9 H 0.28992 0.896979 0.294099 . .
H10 H 0.320554 0.942546 0.228565 . .
H11 H 0.158289 0.748341 0 . .
H12 H 0.205901 0.78992 -0.103021 . .
H13 H 0.271435 0.820554 -0.0574539 . .
H14 H 0.271435 0.820554 0.0574539 . .
H15 H 0.205901 0.78992 0.103021 . .
H16 H 0.341711 0.751659 0 . .
H17 H 0.228565 0.679446 -0.0574539 . .
H18 H 0.294099 0.71008 -0.103021 . .
H19 H 0.294099 0.71008 0.103021 . .
H20 H 0.228565 0.679446 0.0574539 . .
H21 H 0 0.841711 0.251659 . .
H22 H -0.103021 0.794099 0.21008 . .
H23 H -0.0574539 0.728565 0.179446 . .
H24 H 0.0574539 0.728565 0.179446 . .
H25 H 0.103021 0.794099 0.21008 . .
H26 H 0 0.658289 0.248341 . .
H27 H -0.0574539 0.771435 0.320554 . .
H28 H -0.103021 0.705901 0.28992 . .
H29 H 0.103021 0.705901 0.28992 . .
H30 H 0.0574539 0.771435 0.320554 . .
C1 C 0.15000000(800000) 0.50000000 0.64700000(900000) 0.0519 Uiso
C2 C 0.21000000(300000) 0.50000000 0.69000000(300000) 0.0519 Uiso
C3 C 0.21620000(140000) 0.44060000(110000) 0.73420000(180000) 0.0519 Uiso
O1 O 0.08800000(500000) 0.50000000 0.67200000(400000) 0.0519 Uiso
O2 O 0.17500000(400000) 0.50000000 0.58500000(500000) 0.0519 Uiso
O8 O 0.05880000(60000) 0.55880000(60000) 0.55880000(60000) 0.0519 Uiso
C3 C 0.21620000(140000) 0.55940000(110000) 0.73420000(180000) 0.0519 Uiso
C1 C 0.35000000(800000) 0.50000000 0.85300000(900000) 0.0519 Uiso
C2 C 0.29000000(300000) 0.50000000 0.81000000(300000) 0.0519 Uiso
C3 C 0.28380000(140000) 0.44060000(110000) 0.76580000(180000) 0.0519 Uiso
O1 O 0.41200000(500000) 0.50000000 0.82800000(400000) 0.0519 Uiso
O2 O 0.32500000(400000) 0.50000000 0.91500000(500000) 0.0519 Uiso
C3 C 0.28380000(140000) 0.55940000(110000) 0.76580000(180000) 0.0519 Uiso
C1 C 0.14700000(900000) 0.65000000(800000) 0.50000000 0.0519 Uiso
C2 C 0.19000000(300000) 0.71000000(300000) 0.50000000 0.0519 Uiso
C3 C 0.23420000(180000) 0.71620000(140000) 0.44060000(110000) 0.0519 Uiso
O1 O 0.17200000(400000) 0.58800000(500000) 0.50000000 0.0519 Uiso
O2 O 0.08500000(500000) 0.67500000(400000) 0.50000000 0.0519 Uiso
Zr1 Zr 0.11680000(30000) 0.50000000 0.50000000 0.0104 Uiso
C3 C 0.23420000(180000) 0.71620000(140000) 0.55940000(110000) 0.0519 Uiso
C1 C 0.35300000(900000) 0.85000000(800000) 0.50000000 0.0519 Uiso
C2 C 0.31000000(300000) 0.79000000(300000) 0.50000000 0.0519 Uiso
C3 C 0.26580000(180000) 0.78380000(140000) 0.44060000(110000) 0.0519 Uiso
O1 O 0.32800000(400000) 0.91200000(500000) 0.50000000 0.0519 Uiso
O2 O 0.41500000(500000) 0.82500000(400000) 0.50000000 0.0519 Uiso
C3 C 0.26580000(180000) 0.78380000(140000) 0.55940000(110000) 0.0519 Uiso
O8 O 0.05880000(60000) 0.55880000(60000) 0.44120000(60000) 0.0519 Uiso
O8 O -0.05880000(60000) 0.55880000(60000) 0.55880000(60000) 0.0519 Uiso
O8 O -0.05880000(60000) 0.55880000(60000) 0.44120000(60000) 0.0519 Uiso
O1 O -0.08800000(500000) 0.50000000 0.67200000(400000) 0.0519 Uiso
O1 O 0.17200000(400000) 0.41200000(500000) 0.50000000 0.0519 Uiso
O2 O 0.17500000(400000) 0.50000000 0.41500000(500000) 0.0519 Uiso
O2 O -0.08500000(500000) 0.67500000(400000) 0.50000000 0.0519 Uiso
O8 O -0.05880000(60000) 0.44120000(60000) 0.55880000(60000) 0.0519 Uiso
O8 O 0.05880000(60000) 0.44120000(60000) 0.44120000(60000) 0.0519 Uiso
O8 O 0.05880000(60000) 0.44120000(60000) 0.55880000(60000) 0.0519 Uiso
Zr1 Zr -0.11680000(30000) 0.50000000 0.50000000 0.0104 Uiso
Zr1 Zr 0.50000000 0.50000000 0.88320000(30000) 0.0104 Uiso
Zr1 Zr 0.50000000 0.88320000(30000) 0.50000000 0.0104 Uiso
H1 H 0.251659 0.5 0.658289 . .
H2 H 0.21008 0.396979 0.705901 . .
H3 H 0.179446 0.442546 0.771435 . .
H4 H 0.179446 0.557454 0.771435 . .
H5 H 0.21008 0.603021 0.705901 . .
H6 H 0.248341 0.5 0.841711 . .
H7 H 0.320554 0.442546 0.728565 . .
H8 H 0.28992 0.396979 0.794099 . .
H9 H 0.28992 0.603021 0.794099 . .
H10 H 0.320554 0.557454 0.728565 . .
H11 H 0.158289 0.751659 0.5 . .
H12 H 0.205901 0.71008 0.396979 . .
H13 H 0.271435 0.679446 0.442546 . .
H14 H 0.271435 0.679446 0.557454 . .
H15 H 0.205901 0.71008 0.603021 . .
H16 H 0.341711 0.748341 0.5 . .
H17 H 0.228565 0.820554 0.442546 . .
H18 H 0.294099 0.78992 0.396979 . .
H19 H 0.294099 0.78992 0.603021 . .
H20 H 0.228565 0.820554 0.557454 . .
C1 C 0.65000000(800000) 0.50000000 0.14700000(900000) 0.0519 Uiso
C2 C 0.71000000(300000) 0.50000000 0.19000000(300000) 0.0519 Uiso
C3 C 0.71620000(140000) 0.44060000(110000) 0.23420000(180000) 0.0519 Uiso
O1 O 0.58800000(500000) 0.50000000 0.17200000(400000) 0.0519 Uiso
O2 O 0.67500000(400000) 0.50000000 0.08500000(500000) 0.0519 Uiso
O8 O 0.55880000(60000) 0.55880000(60000) 0.05880000(60000) 0.0519 Uiso
Zr1 Zr 0.50000000 0.50000000 0.11680000(30000) 0.0104 Uiso
C3 C 0.71620000(140000) 0.55940000(110000) 0.23420000(180000) 0.0519 Uiso
C1 C 0.85000000(800000) 0.50000000 0.35300000(900000) 0.0519 Uiso
C2 C 0.79000000(300000) 0.50000000 0.31000000(300000) 0.0519 Uiso
C3 C 0.78380000(140000) 0.44060000(110000) 0.26580000(180000) 0.0519 Uiso
O1 O 0.91200000(500000) 0.50000000 0.32800000(400000) 0.0519 Uiso
O2 O 0.82500000(400000) 0.50000000 0.41500000(500000) 0.0519 Uiso
C3 C 0.78380000(140000) 0.55940000(110000) 0.26580000(180000) 0.0519 Uiso
C1 C 0.50000000 0.64700000(900000) 0.15000000(800000) 0.0519 Uiso
C2 C 0.50000000 0.69000000(300000) 0.21000000(300000) 0.0519 Uiso
C3 C 0.44060000(110000) 0.73420000(180000) 0.21620000(140000) 0.0519 Uiso
O1 O 0.50000000 0.67200000(400000) 0.08800000(500000) 0.0519 Uiso
O2 O 0.50000000 0.58500000(500000) 0.17500000(400000) 0.0519 Uiso
C3 C 0.55940000(110000) 0.73420000(180000) 0.21620000(140000) 0.0519 Uiso
C1 C 0.50000000 0.85300000(900000) 0.35000000(800000) 0.0519 Uiso
C2 C 0.50000000 0.81000000(300000) 0.29000000(300000) 0.0519 Uiso
C3 C 0.44060000(110000) 0.76580000(180000) 0.28380000(140000) 0.0519 Uiso
O1 O 0.50000000 0.82800000(400000) 0.41200000(500000) 0.0519 Uiso
O2 O 0.50000000 0.91500000(500000) 0.32500000(400000) 0.0519 Uiso
C3 C 0.55940000(110000) 0.76580000(180000) 0.28380000(140000) 0.0519 Uiso
O8 O 0.55880000(60000) 0.55880000(60000) -0.05880000(60000) 0.0519 Uiso
O8 O 0.44120000(60000) 0.55880000(60000) 0.05880000(60000) 0.0519 Uiso
O8 O 0.44120000(60000) 0.55880000(60000) -0.05880000(60000) 0.0519 Uiso
O1 O 0.50000000 0.67200000(400000) -0.08800000(500000) 0.0519 Uiso
O1 O 0.41200000(500000) 0.50000000 0.17200000(400000) 0.0519 Uiso
O2 O 0.67500000(400000) 0.50000000 -0.08500000(500000) 0.0519 Uiso
O2 O 0.50000000 0.41500000(500000) 0.17500000(400000) 0.0519 Uiso
O8 O 0.44120000(60000) 0.44120000(60000) 0.05880000(60000) 0.0519 Uiso
O8 O 0.55880000(60000) 0.44120000(60000) -0.05880000(60000) 0.0519 Uiso
O8 O 0.55880000(60000) 0.44120000(60000) 0.05880000(60000) 0.0519 Uiso
Zr1 Zr 0.50000000 0.50000000 -0.11680000(30000) 0.0104 Uiso
Zr1 Zr 0.88320000(30000) 0.50000000 0.50000000 0.0104 Uiso
H1 H 0.751659 0.5 0.158289 . .
H2 H 0.71008 0.396979 0.205901 . .
H3 H 0.679446 0.442546 0.271435 . .
H4 H 0.679446 0.557454 0.271435 . .
H5 H 0.71008 0.603021 0.205901 . .
H6 H 0.748341 0.5 0.341711 . .
H7 H 0.820554 0.442546 0.228565 . .
H8 H 0.78992 0.396979 0.294099 . .
H9 H 0.78992 0.603021 0.294099 . .
H10 H 0.820554 0.557454 0.228565 . .
H21 H 0.5 0.658289 0.251659 . .
H22 H 0.396979 0.705901 0.21008 . .
H23 H 0.442546 0.771435 0.179446 . .
H24 H 0.557454 0.771435 0.179446 . .
H25 H 0.603021 0.705901 0.21008 . .
H26 H 0.5 0.841711 0.248341 . .
H27 H 0.442546 0.728565 0.320554 . .
H28 H 0.396979 0.794099 0.28992 . .
H29 H 0.603021 0.794099 0.28992 . .
H30 H 0.557454 0.728565 0.320554 . .
O8 O 0.55880000(60000) 0.05880000(60000) 0.55880000(60000) 0.0519 Uiso
C1 C 0.64700000(900000) 0.15000000(800000) 0.50000000 0.0519 Uiso
C2 C 0.69000000(300000) 0.21000000(300000) 0.50000000 0.0519 Uiso
C3 C 0.73420000(180000) 0.21620000(140000) 0.44060000(110000) 0.0519 Uiso
O1 O 0.67200000(400000) 0.08800000(500000) 0.50000000 0.0519 Uiso
O2 O 0.58500000(500000) 0.17500000(400000) 0.50000000 0.0519 Uiso
C3 C 0.73420000(180000) 0.21620000(140000) 0.55940000(110000) 0.0519 Uiso
C1 C 0.85300000(900000) 0.35000000(800000) 0.50000000 0.0519 Uiso
C2 C 0.81000000(300000) 0.29000000(300000) 0.50000000 0.0519 Uiso
C3 C 0.76580000(180000) 0.28380000(140000) 0.44060000(110000) 0.0519 Uiso
O1 O 0.82800000(400000) 0.41200000(500000) 0.50000000 0.0519 Uiso
O2 O 0.91500000(500000) 0.32500000(400000) 0.50000000 0.0519 Uiso
C3 C 0.76580000(180000) 0.28380000(140000) 0.55940000(110000) 0.0519 Uiso
C1 C 0.50000000 0.14700000(900000) 0.65000000(800000) 0.0519 Uiso
C2 C 0.50000000 0.19000000(300000) 0.71000000(300000) 0.0519 Uiso
C3 C 0.44060000(110000) 0.23420000(180000) 0.71620000(140000) 0.0519 Uiso
O1 O 0.50000000 0.17200000(400000) 0.58800000(500000) 0.0519 Uiso
O2 O 0.50000000 0.08500000(500000) 0.67500000(400000) 0.0519 Uiso
Zr1 Zr 0.50000000 0.11680000(30000) 0.50000000 0.0104 Uiso
C3 C 0.55940000(110000) 0.23420000(180000) 0.71620000(140000) 0.0519 Uiso
C1 C 0.50000000 0.35300000(900000) 0.85000000(800000) 0.0519 Uiso
C2 C 0.50000000 0.31000000(300000) 0.79000000(300000) 0.0519 Uiso
C3 C 0.44060000(110000) 0.26580000(180000) 0.78380000(140000) 0.0519 Uiso
O1 O 0.50000000 0.32800000(400000) 0.91200000(500000) 0.0519 Uiso
O2 O 0.50000000 0.41500000(500000) 0.82500000(400000) 0.0519 Uiso
C3 C 0.55940000(110000) 0.26580000(180000) 0.78380000(140000) 0.0519 Uiso
O8 O 0.55880000(60000) 0.05880000(60000) 0.44120000(60000) 0.0519 Uiso
O8 O 0.44120000(60000) 0.05880000(60000) 0.55880000(60000) 0.0519 Uiso
O8 O 0.44120000(60000) 0.05880000(60000) 0.44120000(60000) 0.0519 Uiso
O1 O 0.50000000 0.17200000(400000) 0.41200000(500000) 0.0519 Uiso
O1 O 0.67200000(400000) -0.08800000(500000) 0.50000000 0.0519 Uiso
O2 O 0.41500000(500000) 0.17500000(400000) 0.50000000 0.0519 Uiso
O2 O 0.50000000 -0.08500000(500000) 0.67500000(400000) 0.0519 Uiso
O8 O 0.44120000(60000) -0.05880000(60000) 0.55880000(60000) 0.0519 Uiso
O8 O 0.55880000(60000) -0.05880000(60000) 0.44120000(60000) 0.0519 Uiso
O8 O 0.55880000(60000) -0.05880000(60000) 0.55880000(60000) 0.0519 Uiso
Zr1 Zr 0.50000000 -0.11680000(30000) 0.50000000 0.0104 Uiso
H11 H 0.658289 0.251659 0.5 . .
H12 H 0.705901 0.21008 0.396979 . .
H13 H 0.771435 0.179446 0.442546 . .
H14 H 0.771435 0.179446 0.557454 . .
H15 H 0.705901 0.21008 0.603021 . .
H16 H 0.841711 0.248341 0.5 . .
H17 H 0.728565 0.320554 0.442546 . .
H18 H 0.794099 0.28992 0.396979 . .
H19 H 0.794099 0.28992 0.603021 . .
H20 H 0.728565 0.320554 0.557454 . .
H21 H 0.5 0.158289 0.751659 . .
H22 H 0.396979 0.205901 0.71008 . .
H23 H 0.442546 0.271435 0.679446 . .
H24 H 0.557454 0.271435 0.679446 . .
H25 H 0.603021 0.205901 0.71008 . .
H26 H 0.5 0.341711 0.748341 . .
H27 H 0.442546 0.228565 0.820554 . .
H28 H 0.396979 0.294099 0.78992 . .
H29 H 0.603021 0.294099 0.78992 . .
H30 H 0.557454 0.228565 0.820554 . .
C1 C 0.15000000(800000) 0.50000000 0.35300000(900000) 0.0519 Uiso
C2 C 0.21000000(300000) 0.50000000 0.31000000(300000) 0.0519 Uiso
C3 C 0.21620000(140000) 0.44060000(110000) 0.26580000(180000) 0.0519 Uiso
O1 O 0.08800000(500000) 0.50000000 0.32800000(400000) 0.0519 Uiso
C3 C 0.21620000(140000) 0.55940000(110000) 0.26580000(180000) 0.0519 Uiso
C1 C 0.35000000(800000) 0.50000000 0.14700000(900000) 0.0519 Uiso
C2 C 0.29000000(300000) 0.50000000 0.19000000(300000) 0.0519 Uiso
C3 C 0.28380000(140000) 0.44060000(110000) 0.23420000(180000) 0.0519 Uiso
O2 O 0.32500000(400000) 0.50000000 0.08500000(500000) 0.0519 Uiso
C3 C 0.28380000(140000) 0.55940000(110000) 0.23420000(180000) 0.0519 Uiso
O1 O -0.08800000(500000) 0.50000000 0.32800000(400000) 0.0519 Uiso
O8 O -0.05880000(60000) 0.44120000(60000) 0.44120000(60000) 0.0519 Uiso
H1 H 0.251659 0.5 0.341711 . .
H2 H 0.21008 0.396979 0.294099 . .
H3 H 0.179446 0.442546 0.228565 . .
H4 H 0.179446 0.557454 0.228565 . .
H5 H 0.21008 0.603021 0.294099 . .
H6 H 0.248341 0.5 0.158289 . .
H7 H 0.320554 0.442546 0.271435 . .
H8 H 0.28992 0.396979 0.205901 . .
H9 H 0.28992 0.603021 0.205901 . .
H10 H 0.320554 0.557454 0.271435 . .
C1 C 0.65000000(800000) 0.50000000 0.85300000(900000) 0.0519 Uiso
C2 C 0.71000000(300000) 0.50000000 0.81000000(300000) 0.0519 Uiso
C3 C 0.71620000(140000) 0.44060000(110000) 0.76580000(180000) 0.0519 Uiso
O1 O 0.58800000(500000) 0.50000000 0.82800000(400000) 0.0519 Uiso
O2 O 0.67500000(400000) 0.50000000 0.91500000(500000) 0.0519 Uiso
O8 O 0.55880000(60000) 0.55880000(60000) 0.94120000(60000) 0.0519 Uiso
C3 C 0.71620000(140000) 0.55940000(110000) 0.76580000(180000) 0.0519 Uiso
C1 C 0.85000000(800000) 0.50000000 0.64700000(900000) 0.0519 Uiso
C2 C 0.79000000(300000) 0.50000000 0.69000000(300000) 0.0519 Uiso
C3 C 0.78380000(140000) 0.44060000(110000) 0.73420000(180000) 0.0519 Uiso
O1 O 0.91200000(500000) 0.50000000 0.67200000(400000) 0.0519 Uiso
O2 O 0.82500000(400000) 0.50000000 0.58500000(500000) 0.0519 Uiso
C3 C 0.78380000(140000) 0.55940000(110000) 0.73420000(180000) 0.0519 Uiso
C1 C 0.50000000 0.64700000(900000) 0.85000000(800000) 0.0519 Uiso
C2 C 0.50000000 0.69000000(300000) 0.79000000(300000) 0.0519 Uiso
C3 C 0.44060000(110000) 0.73420000(180000) 0.78380000(140000) 0.0519 Uiso
O1 O 0.50000000 0.67200000(400000) 0.91200000(500000) 0.0519 Uiso
O2 O 0.50000000 0.58500000(500000) 0.82500000(400000) 0.0519 Uiso
C3 C 0.55940000(110000) 0.73420000(180000) 0.78380000(140000) 0.0519 Uiso
C1 C 0.50000000 0.85300000(900000) 0.65000000(800000) 0.0519 Uiso
C2 C 0.50000000 0.81000000(300000) 0.71000000(300000) 0.0519 Uiso
C3 C 0.44060000(110000) 0.76580000(180000) 0.71620000(140000) 0.0519 Uiso
O1 O 0.50000000 0.82800000(400000) 0.58800000(500000) 0.0519 Uiso
O2 O 0.50000000 0.91500000(500000) 0.67500000(400000) 0.0519 Uiso
C3 C 0.55940000(110000) 0.76580000(180000) 0.71620000(140000) 0.0519 Uiso
O8 O 0.55880000(60000) 0.55880000(60000) 1.05880000(60000) 0.0519 Uiso
O8 O 0.44120000(60000) 0.55880000(60000) 0.94120000(60000) 0.0519 Uiso
O8 O 0.44120000(60000) 0.55880000(60000) 1.05880000(60000) 0.0519 Uiso
O1 O 0.50000000 0.67200000(400000) 1.08800000(500000) 0.0519 Uiso
O2 O 0.67500000(400000) 0.50000000 1.08500000(500000) 0.0519 Uiso
O8 O 0.44120000(60000) 0.44120000(60000) 0.94120000(60000) 0.0519 Uiso
O8 O 0.55880000(60000) 0.44120000(60000) 1.05880000(60000) 0.0519 Uiso
O8 O 0.55880000(60000) 0.44120000(60000) 0.94120000(60000) 0.0519 Uiso
Zr1 Zr 0.50000000 0.50000000 1.11680000(30000) 0.0104 Uiso
H1 H 0.751659 0.5 0.841711 . .
H2 H 0.71008 0.396979 0.794099 . .
H3 H 0.679446 0.442546 0.728565 . .
H4 H 0.679446 0.557454 0.728565 . .
H5 H 0.71008 0.603021 0.794099 . .
H6 H 0.748341 0.5 0.658289 . .
H7 H 0.820554 0.442546 0.771435 . .
H8 H 0.78992 0.396979 0.705901 . .
H9 H 0.78992 0.603021 0.705901 . .
H10 H 0.820554 0.557454 0.771435 . .
H21 H 0.5 0.658289 0.748341 . .
H22 H 0.396979 0.705901 0.78992 . .
H23 H 0.442546 0.771435 0.820554 . .
H24 H 0.557454 0.771435 0.820554 . .
H25 H 0.603021 0.705901 0.78992 . .
H26 H 0.5 0.841711 0.751659 . .
H27 H 0.442546 0.728565 0.679446 . .
H28 H 0.396979 0.794099 0.71008 . .
H29 H 0.603021 0.794099 0.71008 . .
H30 H 0.557454 0.728565 0.679446 . .
C1 C 0.50000000 0.14700000(900000) 0.35000000(800000) 0.0519 Uiso
C2 C 0.50000000 0.19000000(300000) 0.29000000(300000) 0.0519 Uiso
C3 C 0.44060000(110000) 0.23420000(180000) 0.28380000(140000) 0.0519 Uiso
O2 O 0.50000000 0.08500000(500000) 0.32500000(400000) 0.0519 Uiso
C3 C 0.55940000(110000) 0.23420000(180000) 0.28380000(140000) 0.0519 Uiso
C1 C 0.50000000 0.35300000(900000) 0.15000000(800000) 0.0519 Uiso
C2 C 0.50000000 0.31000000(300000) 0.21000000(300000) 0.0519 Uiso
C3 C 0.44060000(110000) 0.26580000(180000) 0.21620000(140000) 0.0519 Uiso
O1 O 0.50000000 0.32800000(400000) 0.08800000(500000) 0.0519 Uiso
C3 C 0.55940000(110000) 0.26580000(180000) 0.21620000(140000) 0.0519 Uiso
O2 O 0.50000000 -0.08500000(500000) 0.32500000(400000) 0.0519 Uiso
O8 O 0.44120000(60000) -0.05880000(60000) 0.44120000(60000) 0.0519 Uiso
H21 H 0.5 0.158289 0.248341 . .
H22 H 0.396979 0.205901 0.28992 . .
H23 H 0.442546 0.271435 0.320554 . .
H24 H 0.557454 0.271435 0.320554 . .
H25 H 0.603021 0.205901 0.28992 . .
H26 H 0.5 0.341711 0.251659 . .
H27 H 0.442546 0.228565 0.179446 . .
H28 H 0.396979 0.294099 0.21008 . .
H29 H 0.603021 0.294099 0.21008 . .
H30 H 0.557454 0.228565 0.179446 . .
O8 O 0.94120000(60000) 0.55880000(60000) 0.55880000(60000) 0.0519 Uiso
C1 C 0.85300000(900000) 0.65000000(800000) 0.50000000 0.0519 Uiso
C2 C 0.81000000(300000) 0.71000000(300000) 0.50000000 0.0519 Uiso
C3 C 0.76580000(180000) 0.71620000(140000) 0.44060000(110000) 0.0519 Uiso
O1 O 0.82800000(400000) 0.58800000(500000) 0.50000000 0.0519 Uiso
O2 O 0.91500000(500000) 0.67500000(400000) 0.50000000 0.0519 Uiso
C3 C 0.76580000(180000) 0.71620000(140000) 0.55940000(110000) 0.0519 Uiso
C1 C 0.64700000(900000) 0.85000000(800000) 0.50000000 0.0519 Uiso
C2 C 0.69000000(300000) 0.79000000(300000) 0.50000000 0.0519 Uiso
C3 C 0.73420000(180000) 0.78380000(140000) 0.44060000(110000) 0.0519 Uiso
O1 O 0.67200000(400000) 0.91200000(500000) 0.50000000 0.0519 Uiso
O2 O 0.58500000(500000) 0.82500000(400000) 0.50000000 0.0519 Uiso
C3 C 0.73420000(180000) 0.78380000(140000) 0.55940000(110000) 0.0519 Uiso
O8 O 0.94120000(60000) 0.55880000(60000) 0.44120000(60000) 0.0519 Uiso
O8 O 1.05880000(60000) 0.55880000(60000) 0.55880000(60000) 0.0519 Uiso
O8 O 1.05880000(60000) 0.55880000(60000) 0.44120000(60000) 0.0519 Uiso
O1 O 1.08800000(500000) 0.50000000 0.67200000(400000) 0.0519 Uiso
O2 O 1.08500000(500000) 0.67500000(400000) 0.50000000 0.0519 Uiso
O8 O 1.05880000(60000) 0.44120000(60000) 0.55880000(60000) 0.0519 Uiso
O8 O 0.94120000(60000) 0.44120000(60000) 0.44120000(60000) 0.0519 Uiso
O8 O 0.94120000(60000) 0.44120000(60000) 0.55880000(60000) 0.0519 Uiso
Zr1 Zr 1.11680000(30000) 0.50000000 0.50000000 0.0104 Uiso
H11 H 0.841711 0.751659 0.5 . .
H12 H 0.794099 0.71008 0.396979 . .
H13 H 0.728565 0.679446 0.442546 . .
H14 H 0.728565 0.679446 0.557454 . .
H15 H 0.794099 0.71008 0.603021 . .
H16 H 0.658289 0.748341 0.5 . .
H17 H 0.771435 0.820554 0.442546 . .
H18 H 0.705901 0.78992 0.396979 . .
H19 H 0.705901 0.78992 0.603021 . .
H20 H 0.771435 0.820554 0.557454 . .
O2 O 0.32500000(400000) 0.50000000 -0.08500000(500000) 0.0519 Uiso
O8 O 0.44120000(60000) 0.44120000(60000) -0.05880000(60000) 0.0519 Uiso
C1 C 0.35300000(900000) 0.15000000(800000) 0.50000000 0.0519 Uiso
C2 C 0.31000000(300000) 0.21000000(300000) 0.50000000 0.0519 Uiso
C3 C 0.26580000(180000) 0.21620000(140000) 0.44060000(110000) 0.0519 Uiso
O1 O 0.32800000(400000) 0.08800000(500000) 0.50000000 0.0519 Uiso
C3 C 0.26580000(180000) 0.21620000(140000) 0.55940000(110000) 0.0519 Uiso
C1 C 0.14700000(900000) 0.35000000(800000) 0.50000000 0.0519 Uiso
C2 C 0.19000000(300000) 0.29000000(300000) 0.50000000 0.0519 Uiso
C3 C 0.23420000(180000) 0.28380000(140000) 0.44060000(110000) 0.0519 Uiso
O2 O 0.08500000(500000) 0.32500000(400000) 0.50000000 0.0519 Uiso
C3 C 0.23420000(180000) 0.28380000(140000) 0.55940000(110000) 0.0519 Uiso
O1 O 0.32800000(400000) -0.08800000(500000) 0.50000000 0.0519 Uiso
H11 H 0.341711 0.251659 0.5 . .
H12 H 0.294099 0.21008 0.396979 . .
H13 H 0.228565 0.179446 0.442546 . .
H14 H 0.228565 0.179446 0.557454 . .
H15 H 0.294099 0.21008 0.603021 . .
H16 H 0.158289 0.248341 0.5 . .
H17 H 0.271435 0.320554 0.442546 . .
H18 H 0.205901 0.28992 0.396979 . .
H19 H 0.205901 0.28992 0.603021 . .
H20 H 0.271435 0.320554 0.557454 . .
O1 O 1.08800000(500000) 0.50000000 0.32800000(400000) 0.0519 Uiso
O8 O 1.05880000(60000) 0.44120000(60000) 0.44120000(60000) 0.0519 Uiso
O2 O 0.32500000(400000) 0.50000000 1.08500000(500000) 0.0519 Uiso
O8 O 0.44120000(60000) 0.44120000(60000) 1.05880000(60000) 0.0519 Uiso
O2 O 1.08500000(500000) 0.32500000(400000) 0.50000000 0.0519 Uiso
O1 O 0.50000000 0.32800000(400000) 1.08800000(500000) 0.0519 Uiso
O8 O 0.44120000(60000) 0.94120000(60000) 0.44120000(60000) 0.0519 Uiso
O8 O 0.44120000(60000) 0.94120000(60000) 0.55880000(60000) 0.0519 Uiso
O8 O 0.55880000(60000) 0.94120000(60000) 0.44120000(60000) 0.0519 Uiso
O8 O 0.55880000(60000) 0.94120000(60000) 0.55880000(60000) 0.0519 Uiso
O1 O 0.32800000(400000) 1.08800000(500000) 0.50000000 0.0519 Uiso
O2 O 0.50000000 1.08500000(500000) 0.32500000(400000) 0.0519 Uiso
O8 O 0.55880000(60000) 1.05880000(60000) 0.44120000(60000) 0.0519 Uiso
O8 O 0.44120000(60000) 1.05880000(60000) 0.55880000(60000) 0.0519 Uiso
O8 O 0.44120000(60000) 1.05880000(60000) 0.44120000(60000) 0.0519 Uiso
Zr1 Zr 0.50000000 1.11680000(30000) 0.50000000 0.0104 Uiso
O1 O 0.50000000 0.32800000(400000) -0.08800000(500000) 0.0519 Uiso
O2 O 0.50000000 1.08500000(500000) 0.67500000(400000) 0.0519 Uiso
O8 O 0.55880000(60000) 1.05880000(60000) 0.55880000(60000) 0.0519 Uiso
O2 O -0.08500000(500000) 0.32500000(400000) 0.50000000 0.0519 Uiso
O1 O 0.67200000(400000) 1.08800000(500000) 0.50000000 0.0519 Uiso

#END
