####################################################################### 
# 
# This file contains crystal structure data downloaded from the 
# Cambridge Structural Database (CSD) hosted by the Cambridge 
# Crystallographic Data Centre (CCDC).
# 
# Full information about CCDC data access policies and citation 
# guidelines are available at http://www.ccdc.cam.ac.uk/access/V1 
# 
# Audit and citation data items may have been added by the CCDC. 
# Please retain this information to preserve the provenance of 
# this file and to allow appropriate attribution of the data. 
# 
#######################################################################

data_UiO-66_cdc-H2O
_audit_block_doi                 10.5517/ccdc.csd.cc1k56qn
_database_code_depnum_ccdc_archive 'CCDC 1434981'
loop_
_citation_id
_citation_doi
_citation_year
1 10.1002/chem.201600330 2016
_audit_update_record             
;
2015-11-03 deposited with the CCDC.	2023-10-28 downloaded from the CCDC.
;
# start Validation Reply Form
_vrf_PLAT242_UiO-66_cdc-H2O      
;
PROBLEM: Low       Ueq as Compared to Neighbors for .....        Zr1 Check
RESPONSE: Highly disordered solvent & this is powder data.
;
_vrf_PLAT326_UiO-66_cdc-H2O      
;
PROBLEM: Possible Missing H on sp3? Carbon ..............         C2 Check
RESPONSE: This is powder data.
;
_vrf_PLAT342_UiO-66_cdc-H2O      
;
PROBLEM: Low Bond Precision on  C-C Bonds ...............     0.0800 Ang.
RESPONSE: This is powder data.
;

#==============================================================================
# Chemical + Structural + Crystal Information
#==============================================================================
_chemical_formula_moiety         'C48 O32 Zr6, 61.975(O)'
# Note: _chemical_formula_sum/_weight/_cell_formula_units_Z need to be 
# recalculated if any one is changed
_chemical_formula_sum            'C48 O93.975 Zr6'
_chemical_formula_weight         2627.40
_cell_formula_units_Z            4
_pd_char_colour                  white
_exptl_crystal_density_diffrn    1.939
_exptl_crystal_density_meas      'Not measured'
_exptl_crystal_density_method    'Not measured'
_cell_measurement_temperature    298

#==============================================================================
# Instrument + Refinement Information
#==============================================================================
_diffrn_ambient_temperature      298
_diffrn_measurement_device_type  'Stoe Stadi P'
_diffrn_radiation_probe          x-ray
_diffrn_radiation_wavelength     1.540562
_diffrn_radiation_type           'Cu K\a~1~'
_pd_proc_ls_prof_R_factor        0.0620
_pd_proc_ls_prof_wR_factor       0.0822
_pd_proc_ls_prof_wR_expected     0.0566
_refine_ls_R_I_factor            0.0173
_refine_ls_goodness_of_fit_all   1.45285
_refine_ls_shift/su_max          0
_refine_ls_number_parameters     0.000000
_refine_ls_number_restraints     ? #How many restraints used
_refine_diff_density_max         ? #Highest Fourier peak
_refine_diff_density_min         ? #Deepest Fourier hole

#==============================================================================
# Phase Information
#==============================================================================
_cell_length_a                   20.8002(5)
_cell_length_b                   20.8002(5)
_cell_length_c                   20.8002(5)
_cell_angle_alpha                90
_cell_angle_beta                 90
_cell_angle_gamma                90
_cell_volume                     8999.1(6)
_symmetry_cell_setting           cubic
_symmetry_space_group_name_H-M   'F m -3'
_symmetry_space_group_name_Hall  '-F 2 2 3'
_space_group_IT_number           202
loop_
_symmetry_equiv_pos_as_xyz
'x, y, z '
'-x, -y, z '
'-x, y, -z '
'-x, y, z '
'-y, -z, -x '
'-y, -z, x '
'-y, z, -x '
'-y, z, x '
'-z, -x, -y '
'-z, -x, y '
'-z, x, -y '
'-z, x, y '
'z, -x, -y '
'z, -x, y '
'z, x, -y '
'z, x, y '
'y, -z, -x '
'y, -z, x '
'y, z, -x '
'y, z, x '
'x, -y, -z '
'x, -y, z '
'x, y, -z '
'-x, -y, -z '
'x+1/2, y+1/2, z '
'-x+1/2, -y+1/2, z '
'-x+1/2, y+1/2, -z '
'-x+1/2, y+1/2, z '
'-y+1/2, -z+1/2, -x '
'-y+1/2, -z+1/2, x '
'-y+1/2, z+1/2, -x '
'-y+1/2, z+1/2, x '
'-z+1/2, -x+1/2, -y '
'-z+1/2, -x+1/2, y '
'-z+1/2, x+1/2, -y '
'-z+1/2, x+1/2, y '
'z+1/2, -x+1/2, -y '
'z+1/2, -x+1/2, y '
'z+1/2, x+1/2, -y '
'z+1/2, x+1/2, y '
'y+1/2, -z+1/2, -x '
'y+1/2, -z+1/2, x '
'y+1/2, z+1/2, -x '
'y+1/2, z+1/2, x '
'x+1/2, -y+1/2, -z '
'x+1/2, -y+1/2, z '
'x+1/2, y+1/2, -z '
'-x+1/2, -y+1/2, -z '
'x+1/2, y, z+1/2 '
'-x+1/2, -y, z+1/2 '
'-x+1/2, y, -z+1/2 '
'-x+1/2, y, z+1/2 '
'-y+1/2, -z, -x+1/2 '
'-y+1/2, -z, x+1/2 '
'-y+1/2, z, -x+1/2 '
'-y+1/2, z, x+1/2 '
'-z+1/2, -x, -y+1/2 '
'-z+1/2, -x, y+1/2 '
'-z+1/2, x, -y+1/2 '
'-z+1/2, x, y+1/2 '
'z+1/2, -x, -y+1/2 '
'z+1/2, -x, y+1/2 '
'z+1/2, x, -y+1/2 '
'z+1/2, x, y+1/2 '
'y+1/2, -z, -x+1/2 '
'y+1/2, -z, x+1/2 '
'y+1/2, z, -x+1/2 '
'y+1/2, z, x+1/2 '
'x+1/2, -y, -z+1/2 '
'x+1/2, -y, z+1/2 '
'x+1/2, y, -z+1/2 '
'-x+1/2, -y, -z+1/2 '
'x, y+1/2, z+1/2 '
'-x, -y+1/2, z+1/2 '
'-x, y+1/2, -z+1/2 '
'-x, y+1/2, z+1/2 '
'-y, -z+1/2, -x+1/2 '
'-y, -z+1/2, x+1/2 '
'-y, z+1/2, -x+1/2 '
'-y, z+1/2, x+1/2 '
'-z, -x+1/2, -y+1/2 '
'-z, -x+1/2, y+1/2 '
'-z, x+1/2, -y+1/2 '
'-z, x+1/2, y+1/2 '
'z, -x+1/2, -y+1/2 '
'z, -x+1/2, y+1/2 '
'z, x+1/2, -y+1/2 '
'z, x+1/2, y+1/2 '
'y, -z+1/2, -x+1/2 '
'y, -z+1/2, x+1/2 '
'y, z+1/2, -x+1/2 '
'y, z+1/2, x+1/2 '
'x, -y+1/2, -z+1/2 '
'x, -y+1/2, z+1/2 '
'x, y+1/2, -z+1/2 '
'-x, -y+1/2, -z+1/2 '

# Atomic coordinates & thermal parameters
loop_
_atom_site_label
_atom_site_type_symbol
_atom_site_symmetry_multiplicity
_atom_site_fract_x
_atom_site_fract_y
_atom_site_fract_z
_atom_site_occupancy
_atom_site_B_iso_or_equiv
Zr1 Zr 24 0 0 0.1168(3) 1 0.82(12)
O8 O 32 0.0588(6) 0.0588(6) 0.0588(6) 1 4.1(4)
O1 O 48 0.088(5) 0 0.172(4) 1 4.1(4)
O2 O 48 0.175(4) 0 0.085(5) 1 4.1(4)
C1 C 48 0.150(8) 0 0.147(9) 1 4.1(4)
C2 C 48 0.210(3) 0 0.190(3) 1 4.1(4)
C3 C 96 0.2162(14) -0.0594(11) 0.2342(18) 1 4.1(4)

# Molecular Geometry
loop_
_geom_bond_atom_site_label_1
_geom_bond_atom_site_label_2
_geom_bond_distance
_geom_bond_site_symmetry_1
_geom_bond_site_symmetry_2
Zr1 O8 2.108(8) 1_555 1_555
Zr1 O8 2.108(8) 1_555 14_555
Zr1 O8 2.108(8) 1_555 4_555
Zr1 O8 2.108(8) 1_555 2_555
Zr1 O200 2.11(8) 1_555 1_555
Zr1 O2 2.14(10) 1_555 8_555
Zr1 O2 2.14(10) 1_555 6_555
Zr1 O1 2.15(10) 1_555 1_555
Zr1 O1 2.15(10) 1_555 2_555
O8 Zr1 2.108(8) 1_555 7_555
O8 Zr1 2.108(8) 1_555 13_555
O8 Zr1 2.108(8) 1_555 1_555
O1 C1 1.4(2) 1_555 1_555
O2 C1 1.4(2) 1_555 1_555
C1 O2 1.4(2) 1_555 1_555
C1 O1 1.4(2) 1_555 1_555
C1 C2 1.53(18) 1_555 1_555
C2 C1 1.53(18) 1_555 1_555
C2 C3 1.54(5) 1_555 1_555
C2 C3 1.54(5) 1_555 22_555
C3 C2 1.54(5) 1_555 1_555
C3 C3 1.55(6) 1_555 51_555
O200 Zr1 2.11(8) 1_555 1_555

loop_
_geom_angle_atom_site_label_1
_geom_angle_atom_site_label_2
_geom_angle_atom_site_label_3
_geom_angle
_geom_angle_site_symmetry_1
_geom_angle_site_symmetry_2
_geom_angle_site_symmetry_3
O1 C1 O2 133(15) 1_555 1_555 1_555
C2 C1 O1 123(14) 1_555 1_555 1_555
C2 C1 O2 104(12) 1_555 1_555 1_555
C3 C2 C1 114(4) 1_555 1_555 1_555
C3 C2 C3 107(4) 22_555 1_555 1_555
C3 C2 C1 114(4) 22_555 1_555 1_555
C3 C3 C2 109(3) 51_555 1_555 1_555

#==============================================================================
# PD Data Block - Obs + Calc
#==============================================================================
_pd_proc_2theta_range_min        3.0
_pd_proc_2theta_range_max        70.0
_pd_proc_2theta_range_inc        0.01
_pd_meas_number_of_points        6701

loop_
_pd_proc_point_id
_pd_meas_2theta_scan
_pd_proc_intensity_total
_pd_calc_intensity_total
_pd_proc_ls_weight
1 3.00000 391.51142 315.00000 0.00317
2 3.01000 390.19545 342.00000 0.00292
3 3.02000 388.91256 353.00000 0.00283
4 3.03000 387.66234 352.00000 0.00284
5 3.04000 386.44440 361.00000 0.00277
6 3.05000 385.25836 350.00000 0.00286
7 3.06000 384.10384 369.00000 0.00271
8 3.07000 382.98046 344.00000 0.00291
9 3.08000 381.88785 352.00000 0.00284
10 3.09000 380.82565 363.00000 0.00275
11 3.10000 379.79348 378.00000 0.00265
12 3.11000 378.79099 360.00000 0.00278
13 3.12000 377.81784 340.00000 0.00294
14 3.13000 376.87367 363.00000 0.00275
15 3.14000 375.95814 395.00000 0.00253
16 3.15000 375.07092 370.00000 0.00270
17 3.16000 374.21169 344.00000 0.00291
18 3.17000 373.38011 358.00000 0.00279
19 3.18000 372.57589 381.00000 0.00262
20 3.19000 371.79871 365.00000 0.00274
21 3.20000 371.04828 389.00000 0.00257
22 3.21000 370.32432 382.00000 0.00262
23 3.22000 369.62656 332.00000 0.00301
24 3.23000 368.95474 371.00000 0.00270
25 3.24000 368.30862 370.00000 0.00270
26 3.25000 367.68798 343.00000 0.00292
27 3.26000 367.09263 355.00000 0.00282
28 3.27000 366.52239 377.00000 0.00265
29 3.28000 365.97714 399.00000 0.00251
30 3.29000 365.45680 371.00000 0.00270
31 3.30000 364.96135 367.00000 0.00272
32 3.31000 364.49084 377.00000 0.00265
33 3.32000 364.04548 363.00000 0.00275
34 3.33000 363.62562 396.00000 0.00253
35 3.34000 363.23191 322.00000 0.00311
36 3.35000 362.86546 373.00000 0.00268
37 3.36000 362.52826 387.00000 0.00258
38 3.37000 362.22410 386.00000 0.00259
39 3.38000 361.96186 363.00000 0.00275
40 3.39000 361.77585 406.00000 0.00246
41 3.40000 361.66273 354.00000 0.00282
42 3.41000 361.36743 385.00000 0.00260
43 3.42000 361.09086 376.00000 0.00266
44 3.43000 360.83273 394.00000 0.00254
45 3.44000 360.59274 373.00000 0.00268
46 3.45000 360.37061 419.00000 0.00239
47 3.46000 360.16604 380.00000 0.00263
48 3.47000 359.97876 384.00000 0.00260
49 3.48000 359.80848 359.00000 0.00279
50 3.49000 359.65493 381.00000 0.00262
51 3.50000 359.51782 343.00000 0.00292
52 3.51000 359.39689 349.00000 0.00287
53 3.52000 359.29187 355.00000 0.00282
54 3.53000 359.20248 396.00000 0.00253
55 3.54000 359.12846 357.00000 0.00280
56 3.55000 359.06954 350.00000 0.00286
57 3.56000 359.02547 409.00000 0.00244
58 3.57000 358.99598 372.00000 0.00269
59 3.58000 358.98081 348.00000 0.00287
60 3.59000 358.97972 386.00000 0.00259
61 3.60000 358.99245 372.00000 0.00269
62 3.61000 359.01875 347.00000 0.00288
63 3.62000 359.05837 365.00000 0.00274
64 3.63000 359.11107 391.00000 0.00256
65 3.64000 359.17660 405.00000 0.00247
66 3.65000 359.25472 379.00000 0.00264
67 3.66000 359.34520 394.00000 0.00254
68 3.67000 359.44780 405.00000 0.00247
69 3.68000 359.56228 385.00000 0.00260
70 3.69000 359.68841 342.00000 0.00292
71 3.70000 359.82596 361.00000 0.00277
72 3.71000 359.97471 402.00000 0.00249
73 3.72000 360.13443 367.00000 0.00272
74 3.73000 360.30489 369.00000 0.00271
75 3.74000 360.48588 386.00000 0.00259
76 3.75000 360.67717 365.00000 0.00274
77 3.76000 360.87855 373.00000 0.00268
78 3.77000 361.08981 386.00000 0.00259
79 3.78000 361.31073 392.00000 0.00255
80 3.79000 361.54109 376.00000 0.00266
81 3.80000 361.78070 396.00000 0.00253
82 3.81000 362.02935 382.00000 0.00262
83 3.82000 362.28683 391.00000 0.00256
84 3.83000 362.55293 431.00000 0.00232
85 3.84000 362.82747 383.00000 0.00261
86 3.85000 363.11023 389.00000 0.00257
87 3.86000 363.40103 394.00000 0.00254
88 3.87000 363.69966 399.00000 0.00251
89 3.88000 364.00595 408.00000 0.00245
90 3.89000 364.31969 377.00000 0.00265
91 3.90000 364.64069 358.00000 0.00279
92 3.91000 364.96878 376.00000 0.00266
93 3.92000 365.30376 369.00000 0.00271
94 3.93000 365.64549 422.00000 0.00237
95 3.94000 365.99384 328.00000 0.00305
96 3.95000 366.34863 372.00000 0.00269
97 3.96000 366.70968 385.00000 0.00260
98 3.97000 367.07682 400.00000 0.00250
99 3.98000 367.44989 378.00000 0.00265
100 3.99000 367.82871 352.00000 0.00284
101 4.00000 368.21311 401.00000 0.00249
102 4.01000 368.60294 375.00000 0.00267
103 4.02000 368.99803 400.00000 0.00250
104 4.03000 369.39823 382.00000 0.00262
105 4.04000 369.80336 354.00000 0.00282
106 4.05000 370.21328 389.00000 0.00257
107 4.06000 370.62783 392.00000 0.00255
108 4.07000 371.04687 417.00000 0.00240
109 4.08000 371.47023 394.00000 0.00254
110 4.09000 371.89777 377.00000 0.00265
111 4.10000 372.32935 372.00000 0.00269
112 4.11000 372.76482 377.00000 0.00265
113 4.12000 373.20405 328.00000 0.00305
114 4.13000 373.64688 403.00000 0.00248
115 4.14000 374.09318 389.00000 0.00257
116 4.15000 374.54283 370.00000 0.00270
117 4.16000 374.99568 399.00000 0.00251
118 4.17000 375.45160 412.00000 0.00243
119 4.18000 375.91047 400.00000 0.00250
120 4.19000 376.37216 410.00000 0.00244
121 4.20000 376.83656 402.00000 0.00249
122 4.21000 377.30353 441.00000 0.00227
123 4.22000 377.77296 421.00000 0.00238
124 4.23000 378.24475 374.00000 0.00267
125 4.24000 378.71877 428.00000 0.00234
126 4.25000 379.19492 386.00000 0.00259
127 4.26000 379.67310 376.00000 0.00266
128 4.27000 380.15321 391.00000 0.00256
129 4.28000 380.63516 408.00000 0.00245
130 4.29000 381.11886 374.00000 0.00267
131 4.30000 381.60422 418.00000 0.00239
132 4.31000 382.09117 390.00000 0.00256
133 4.32000 382.57965 395.00000 0.00253
134 4.33000 383.06960 393.00000 0.00254
135 4.34000 383.56097 363.00000 0.00275
136 4.35000 384.05374 384.00000 0.00260
137 4.36000 384.54790 375.00000 0.00267
138 4.37000 385.04347 429.00000 0.00233
139 4.38000 385.54050 371.00000 0.00270
140 4.39000 386.03910 378.00000 0.00265
141 4.40000 386.53946 396.00000 0.00253
142 4.41000 387.04185 376.00000 0.00266
143 4.42000 387.54680 405.00000 0.00247
144 4.43000 388.05513 359.00000 0.00279
145 4.44000 388.56850 374.00000 0.00267
146 4.45000 389.09068 393.00000 0.00254
147 4.46000 389.63644 418.00000 0.00239
148 4.47000 390.20123 417.00000 0.00240
149 4.48000 390.68418 439.00000 0.00228
150 4.49000 391.16633 357.00000 0.00280
151 4.50000 391.64759 384.00000 0.00260
152 4.51000 392.12786 374.00000 0.00267
153 4.52000 392.60706 403.00000 0.00248
154 4.53000 393.08510 398.00000 0.00251
155 4.54000 393.56189 389.00000 0.00257
156 4.55000 394.03735 407.00000 0.00246
157 4.56000 394.51139 400.00000 0.00250
158 4.57000 394.98393 360.00000 0.00278
159 4.58000 395.45490 409.00000 0.00244
160 4.59000 395.92420 377.00000 0.00265
161 4.60000 396.39177 362.00000 0.00276
162 4.61000 396.85752 370.00000 0.00270
163 4.62000 397.32138 376.00000 0.00266
164 4.63000 397.78327 392.00000 0.00255
165 4.64000 398.24313 432.00000 0.00231
166 4.65000 398.70087 389.00000 0.00257
167 4.66000 399.15642 373.00000 0.00268
168 4.67000 399.60972 409.00000 0.00244
169 4.68000 400.06070 363.00000 0.00275
170 4.69000 400.50929 386.00000 0.00259
171 4.70000 400.95542 417.00000 0.00240
172 4.71000 401.39903 398.00000 0.00251
173 4.72000 401.84005 415.00000 0.00241
174 4.73000 402.27843 405.00000 0.00247
175 4.74000 402.71409 372.00000 0.00269
176 4.75000 403.14698 383.00000 0.00261
177 4.76000 403.57704 414.00000 0.00242
178 4.77000 404.00421 388.00000 0.00258
179 4.78000 404.42843 395.00000 0.00253
180 4.79000 404.84966 342.00000 0.00292
181 4.80000 405.26782 375.00000 0.00267
182 4.81000 405.68287 361.00000 0.00277
183 4.82000 406.09476 373.00000 0.00268
184 4.83000 406.50344 404.00000 0.00248
185 4.84000 406.90884 412.00000 0.00243
186 4.85000 407.31094 386.00000 0.00259
187 4.86000 407.70967 415.00000 0.00241
188 4.87000 408.10499 419.00000 0.00239
189 4.88000 408.49685 425.00000 0.00235
190 4.89000 408.88522 391.00000 0.00256
191 4.90000 409.27003 398.00000 0.00251
192 4.91000 409.65126 435.00000 0.00230
193 4.92000 410.02887 395.00000 0.00253
194 4.93000 410.40280 410.00000 0.00244
195 4.94000 410.77302 390.00000 0.00256
196 4.95000 411.13949 430.00000 0.00233
197 4.96000 411.50218 364.00000 0.00275
198 4.97000 411.86105 459.00000 0.00218
199 4.98000 412.21606 408.00000 0.00245
200 4.99000 412.56719 409.00000 0.00244
201 5.00000 412.91438 406.00000 0.00246
202 5.01000 413.25762 386.00000 0.00259
203 5.02000 413.59688 407.00000 0.00246
204 5.03000 413.93212 407.00000 0.00246
205 5.04000 414.26331 397.00000 0.00252
206 5.05000 414.59043 414.00000 0.00242
207 5.06000 414.91344 376.00000 0.00266
208 5.07000 415.23234 337.00000 0.00297
209 5.08000 415.54708 391.00000 0.00256
210 5.09000 415.85764 408.00000 0.00245
211 5.10000 416.16401 421.00000 0.00238
212 5.11000 416.46616 372.00000 0.00269
213 5.12000 416.76407 391.00000 0.00256
214 5.13000 417.05773 377.00000 0.00265
215 5.14000 417.34710 424.00000 0.00236
216 5.15000 417.63218 413.00000 0.00242
217 5.16000 417.91295 401.00000 0.00249
218 5.17000 418.18939 390.00000 0.00256
219 5.18000 418.46150 399.00000 0.00251
220 5.19000 418.72925 390.00000 0.00256
221 5.20000 418.99263 406.00000 0.00246
222 5.21000 419.25164 386.00000 0.00259
223 5.22000 419.50626 412.00000 0.00243
224 5.23000 419.75649 406.00000 0.00246
225 5.24000 420.00231 403.00000 0.00248
226 5.25000 420.24372 353.00000 0.00283
227 5.26000 420.48072 405.00000 0.00247
228 5.27000 420.71330 404.00000 0.00248
229 5.28000 420.94145 408.00000 0.00245
230 5.29000 421.16518 382.00000 0.00262
231 5.30000 421.38449 413.00000 0.00242
232 5.31000 421.59936 386.00000 0.00259
233 5.32000 421.80981 366.00000 0.00273
234 5.33000 422.01584 392.00000 0.00255
235 5.34000 422.21745 374.00000 0.00267
236 5.35000 422.41464 394.00000 0.00254
237 5.36000 422.60743 382.00000 0.00262
238 5.37000 422.79581 417.00000 0.00240
239 5.38000 422.97979 389.00000 0.00257
240 5.39000 423.15940 372.00000 0.00269
241 5.40000 423.33463 415.00000 0.00241
242 5.41000 423.50549 400.00000 0.00250
243 5.42000 423.67201 408.00000 0.00245
244 5.43000 423.83419 396.00000 0.00253
245 5.44000 423.99206 386.00000 0.00259
246 5.45000 424.14562 464.00000 0.00216
247 5.46000 424.29491 408.00000 0.00245
248 5.47000 424.43992 443.00000 0.00226
249 5.48000 424.58070 402.00000 0.00249
250 5.49000 424.71726 384.00000 0.00260
251 5.50000 424.84962 392.00000 0.00255
252 5.51000 424.97781 363.00000 0.00275
253 5.52000 425.10187 417.00000 0.00240
254 5.53000 425.22180 435.00000 0.00230
255 5.54000 425.33766 364.00000 0.00275
256 5.55000 425.44946 415.00000 0.00241
257 5.56000 425.55725 396.00000 0.00253
258 5.57000 425.66105 393.00000 0.00254
259 5.58000 425.76090 412.00000 0.00243
260 5.59000 425.85685 368.00000 0.00272
261 5.60000 425.94893 368.00000 0.00272
262 5.61000 426.03719 409.00000 0.00244
263 5.62000 426.12166 407.00000 0.00246
264 5.63000 426.20240 389.00000 0.00257
265 5.64000 426.27946 425.00000 0.00235
266 5.65000 426.35287 394.00000 0.00254
267 5.66000 426.42270 384.00000 0.00260
268 5.67000 426.48900 399.00000 0.00251
269 5.68000 426.55183 413.00000 0.00242
270 5.69000 426.61124 398.00000 0.00251
271 5.70000 426.66730 424.00000 0.00236
272 5.71000 426.72007 401.00000 0.00249
273 5.72000 426.76961 422.00000 0.00237
274 5.73000 426.81600 408.00000 0.00245
275 5.74000 426.85931 402.00000 0.00249
276 5.75000 426.89961 404.00000 0.00248
277 5.76000 426.93697 422.00000 0.00237
278 5.77000 426.97149 399.00000 0.00251
279 5.78000 427.00323 368.00000 0.00272
280 5.79000 427.03230 400.00000 0.00250
281 5.80000 427.05877 379.00000 0.00264
282 5.81000 427.08274 391.00000 0.00256
283 5.82000 427.10431 389.00000 0.00257
284 5.83000 427.12359 390.00000 0.00256
285 5.84000 427.14066 420.00000 0.00238
286 5.85000 427.15565 429.00000 0.00233
287 5.86000 427.16867 389.00000 0.00257
288 5.87000 427.17983 445.00000 0.00225
289 5.88000 427.18926 426.00000 0.00235
290 5.89000 427.19708 399.00000 0.00251
291 5.90000 427.20343 371.00000 0.00270
292 5.91000 427.20844 422.00000 0.00237
293 5.92000 427.21226 399.00000 0.00251
294 5.93000 427.21503 429.00000 0.00233
295 5.94000 427.21692 440.00000 0.00227
296 5.95000 427.21807 440.00000 0.00227
297 5.96000 427.21866 415.00000 0.00241
298 5.97000 427.21887 436.00000 0.00229
299 5.98000 427.21888 422.00000 0.00237
300 5.99000 427.21887 408.00000 0.00245
301 6.00000 427.21905 430.00000 0.00233
302 6.01000 427.21963 385.00000 0.00260
303 6.02000 427.22081 408.00000 0.00245
304 6.03000 427.22283 423.00000 0.00236
305 6.04000 427.22592 406.00000 0.00246
306 6.05000 427.23033 422.00000 0.00237
307 6.06000 427.23632 432.00000 0.00231
308 6.07000 427.24415 469.00000 0.00213
309 6.08000 427.25411 396.00000 0.00253
310 6.09000 427.26650 375.00000 0.00267
311 6.10000 427.28163 422.00000 0.00237
312 6.11000 427.29982 416.00000 0.00240
313 6.12000 427.32141 387.00000 0.00258
314 6.13000 427.34676 396.00000 0.00253
315 6.14000 427.37626 406.00000 0.00246
316 6.15000 427.41029 400.00000 0.00250
317 6.16000 427.44928 421.00000 0.00238
318 6.17000 427.49366 429.00000 0.00233
319 6.18000 427.54391 415.00000 0.00241
320 6.19000 427.60050 420.00000 0.00238
321 6.20000 427.66395 435.00000 0.00230
322 6.21000 427.73481 442.00000 0.00226
323 6.22000 427.81365 415.00000 0.00241
324 6.23000 427.90109 374.00000 0.00267
325 6.24000 427.99778 435.00000 0.00230
326 6.25000 428.10439 439.00000 0.00228
327 6.26000 428.22165 410.00000 0.00244
328 6.27000 428.35035 427.00000 0.00234
329 6.28000 428.49130 388.00000 0.00258
330 6.29000 428.64538 361.00000 0.00277
331 6.30000 428.81352 449.00000 0.00223
332 6.31000 428.99673 403.00000 0.00248
333 6.32000 429.19606 425.00000 0.00235
334 6.33000 429.41268 414.00000 0.00242
335 6.34000 429.64779 385.00000 0.00260
336 6.35000 429.90272 408.00000 0.00245
337 6.36000 430.17888 422.00000 0.00237
338 6.37000 430.47781 486.00000 0.00206
339 6.38000 430.80114 409.00000 0.00244
340 6.39000 431.15066 412.00000 0.00243
341 6.40000 431.52830 453.00000 0.00221
342 6.41000 431.93616 441.00000 0.00227
343 6.42000 432.37653 431.00000 0.00232
344 6.43000 432.85188 467.00000 0.00214
345 6.44000 433.36495 442.00000 0.00226
346 6.45000 433.91872 469.00000 0.00213
347 6.46000 434.51647 442.00000 0.00226
348 6.47000 435.16185 457.00000 0.00219
349 6.48000 435.85885 473.00000 0.00211
350 6.49000 436.61193 430.00000 0.00233
351 6.50000 437.42608 450.00000 0.00222
352 6.51000 438.30687 426.00000 0.00235
353 6.52000 439.26056 457.00000 0.00219
354 6.53000 440.29424 491.00000 0.00204
355 6.54000 441.41599 512.00000 0.00195
356 6.55000 442.63502 489.00000 0.00204
357 6.56000 443.96202 542.00000 0.00185
358 6.57000 445.40946 547.00000 0.00183
359 6.58000 446.99221 507.00000 0.00197
360 6.59000 448.72857 535.00000 0.00187
361 6.60000 450.64207 546.00000 0.00183
362 6.61000 452.76472 569.00000 0.00176
363 6.62000 455.14264 583.00000 0.00172
364 6.63000 457.84512 544.00000 0.00184
365 6.64000 460.97798 592.00000 0.00169
366 6.65000 464.70105 615.00000 0.00163
367 6.66000 469.24779 600.00000 0.00167
368 6.67000 474.94263 631.00000 0.00158
369 6.68000 482.20922 620.00000 0.00161
370 6.69000 491.56212 645.00000 0.00155
371 6.70000 503.57425 707.00000 0.00141
372 6.71000 518.81428 696.00000 0.00144
373 6.72000 537.75398 718.00000 0.00139
374 6.73000 560.66635 721.00000 0.00139
375 6.74000 587.56619 726.00000 0.00138
376 6.75000 618.23360 730.00000 0.00137
377 6.76000 652.30033 732.00000 0.00137
378 6.77000 689.34521 785.00000 0.00127
379 6.78000 728.96701 844.00000 0.00118
380 6.79000 770.82879 817.00000 0.00122
381 6.80000 814.67743 839.00000 0.00119
382 6.81000 860.34436 865.00000 0.00116
383 6.82000 907.73457 931.00000 0.00107
384 6.83000 956.81058 965.00000 0.00104
385 6.84000 1007.57665 912.00000 0.00110
386 6.85000 1060.06598 1072.00000 0.00093
387 6.86000 1114.33177 1061.00000 0.00094
388 6.87000 1170.44173 1180.00000 0.00085
389 6.88000 1228.47510 1153.00000 0.00087
390 6.89000 1288.52134 1204.00000 0.00083
391 6.90000 1350.67970 1204.00000 0.00083
392 6.91000 1415.05948 1305.00000 0.00077
393 6.92000 1481.78056 1389.00000 0.00072
394 6.93000 1550.97413 1493.00000 0.00067
395 6.94000 1622.78374 1470.00000 0.00068
396 6.95000 1697.36645 1581.00000 0.00063
397 6.96000 1774.89424 1665.00000 0.00060
398 6.97000 1855.55560 1735.00000 0.00058
399 6.98000 1939.55751 1790.00000 0.00056
400 6.99000 2027.12759 1903.00000 0.00053
401 7.00000 2118.51670 1886.00000 0.00053
402 7.01000 2214.00198 1960.00000 0.00051
403 7.02000 2313.89040 2108.00000 0.00047
404 7.03000 2418.52290 2245.00000 0.00045
405 7.04000 2528.27936 2335.00000 0.00043
406 7.05000 2643.58445 2488.00000 0.00040
407 7.06000 2764.91469 2626.00000 0.00038
408 7.07000 2892.80686 2846.00000 0.00035
409 7.08000 3027.86829 2894.00000 0.00035
410 7.09000 3170.78939 3011.00000 0.00033
411 7.10000 3322.35917 3312.00000 0.00030
412 7.11000 3483.48452 3431.00000 0.00029
413 7.12000 3655.21475 3547.00000 0.00028
414 7.13000 3838.77284 3822.00000 0.00026
415 7.14000 4035.59667 4127.00000 0.00024
416 7.15000 4247.39408 4274.00000 0.00023
417 7.16000 4476.21912 4545.00000 0.00022
418 7.17000 4724.58102 4869.00000 0.00021
419 7.18000 4995.60495 5262.00000 0.00019
420 7.19000 5293.27327 5581.00000 0.00018
421 7.20000 5622.78397 5923.00000 0.00017
422 7.21000 5991.05593 6126.00000 0.00016
423 7.22000 6407.36118 6567.00000 0.00015
424 7.23000 6883.93066 7036.00000 0.00014
425 7.24000 7436.12983 7677.00000 0.00013
426 7.25000 8081.45841 8034.00000 0.00012
427 7.26000 8836.34962 8799.00000 0.00011
428 7.27000 9709.83483 9678.00000 0.00010
429 7.28000 10693.94182 10886.00000 0.00009
430 7.29000 11752.27822 11569.00000 0.00009
431 7.30000 12810.06187 12918.00000 0.00008
432 7.31000 13749.78690 13830.00000 0.00007
433 7.32000 14416.20842 14743.00000 0.00007
434 7.33000 14634.64854 14937.00000 0.00007
435 7.34000 14252.01756 14057.00000 0.00007
436 7.35000 13209.83252 13467.00000 0.00007
437 7.36000 11614.06945 11230.00000 0.00009
438 7.37000 9713.13365 10022.00000 0.00010
439 7.38000 7781.35075 7692.00000 0.00013
440 7.39000 6023.42461 5892.00000 0.00017
441 7.40000 4551.86516 4442.00000 0.00023
442 7.41000 3402.18812 3361.00000 0.00030
443 7.42000 2555.84856 2428.00000 0.00041
444 7.43000 1963.04160 2043.00000 0.00049
445 7.44000 1562.73949 1552.00000 0.00064
446 7.45000 1297.28213 1340.00000 0.00075
447 7.46000 1120.24701 1150.00000 0.00087
448 7.47000 998.47936 1037.00000 0.00096
449 7.48000 910.45742 884.00000 0.00113
450 7.49000 843.21211 813.00000 0.00123
451 7.50000 789.30668 812.00000 0.00123
452 7.51000 744.54697 765.00000 0.00131
453 7.52000 706.50780 754.00000 0.00133
454 7.53000 673.69251 660.00000 0.00152
455 7.54000 645.09484 662.00000 0.00151
456 7.55000 619.98306 629.00000 0.00159
457 7.56000 597.79477 643.00000 0.00156
458 7.57000 578.08292 637.00000 0.00157
459 7.58000 560.48523 586.00000 0.00171
460 7.59000 544.70450 553.00000 0.00181
461 7.60000 530.49485 543.00000 0.00184
462 7.61000 517.65139 573.00000 0.00175
463 7.62000 506.00236 534.00000 0.00187
464 7.63000 495.40293 558.00000 0.00179
465 7.64000 485.73038 547.00000 0.00183
466 7.65000 476.88026 476.00000 0.00210
467 7.66000 468.76326 495.00000 0.00202
468 7.67000 461.30275 531.00000 0.00188
469 7.68000 454.43280 560.00000 0.00179
470 7.69000 448.09654 578.00000 0.00173
471 7.70000 442.24487 509.00000 0.00196
472 7.71000 436.83537 487.00000 0.00205
473 7.72000 431.83166 555.00000 0.00180
474 7.73000 427.20352 532.00000 0.00188
475 7.74000 422.92896 531.00000 0.00188
476 7.75000 418.95759 478.00000 0.00209
477 7.76000 415.28713 544.00000 0.00184
478 7.77000 411.90059 488.00000 0.00205
479 7.78000 408.78398 504.00000 0.00198
480 7.79000 405.92620 532.00000 0.00188
481 7.80000 403.31902 528.00000 0.00189
482 7.81000 400.95725 523.00000 0.00191
483 7.82000 398.83924 574.00000 0.00174
484 7.83000 396.96782 546.00000 0.00183
485 7.84000 395.35214 560.00000 0.00179
486 7.85000 394.01076 592.00000 0.00169
487 7.86000 392.97643 535.00000 0.00187
488 7.87000 392.30281 572.00000 0.00175
489 7.88000 392.07265 548.00000 0.00182
490 7.89000 392.40618 610.00000 0.00164
491 7.90000 393.46742 591.00000 0.00169
492 7.91000 395.46527 568.00000 0.00176
493 7.92000 398.64604 580.00000 0.00172
494 7.93000 403.27377 580.00000 0.00172
495 7.94000 409.59563 555.00000 0.00180
496 7.95000 417.79474 564.00000 0.00177
497 7.96000 427.94780 563.00000 0.00178
498 7.97000 440.01432 580.00000 0.00172
499 7.98000 453.86466 520.00000 0.00192
500 7.99000 469.32509 605.00000 0.00165
501 8.00000 486.21712 566.00000 0.00177
502 8.01000 504.38344 559.00000 0.00179
503 8.02000 523.70147 560.00000 0.00179
504 8.03000 544.08742 599.00000 0.00167
505 8.04000 565.49389 617.00000 0.00162
506 8.05000 587.90398 641.00000 0.00156
507 8.06000 611.32455 645.00000 0.00155
508 8.07000 635.78010 718.00000 0.00139
509 8.08000 661.30833 637.00000 0.00157
510 8.09000 687.95719 641.00000 0.00156
511 8.10000 715.78339 704.00000 0.00142
512 8.11000 744.85174 726.00000 0.00138
513 8.12000 775.23525 703.00000 0.00142
514 8.13000 807.01553 826.00000 0.00121
515 8.14000 840.28358 771.00000 0.00130
516 8.15000 875.14075 776.00000 0.00129
517 8.16000 911.69999 860.00000 0.00116
518 8.17000 950.08732 829.00000 0.00121
519 8.18000 990.44361 953.00000 0.00105
520 8.19000 1032.92672 958.00000 0.00104
521 8.20000 1077.71408 976.00000 0.00102
522 8.21000 1125.00575 1012.00000 0.00099
523 8.22000 1175.02824 1065.00000 0.00094
524 8.23000 1228.03906 1075.00000 0.00093
525 8.24000 1284.33237 1134.00000 0.00088
526 8.25000 1344.24612 1149.00000 0.00087
527 8.26000 1408.17087 1234.00000 0.00081
528 8.27000 1476.56124 1375.00000 0.00073
529 8.28000 1549.95078 1511.00000 0.00066
530 8.29000 1628.97188 1532.00000 0.00065
531 8.30000 1714.38317 1610.00000 0.00062
532 8.31000 1807.10861 1693.00000 0.00059
533 8.32000 1908.29474 1822.00000 0.00055
534 8.33000 2019.39605 1949.00000 0.00051
535 8.34000 2142.30024 2011.00000 0.00050
536 8.35000 2279.50227 2292.00000 0.00044
537 8.36000 2434.31702 2388.00000 0.00042
538 8.37000 2611.07363 2740.00000 0.00036
539 8.38000 2815.14973 2792.00000 0.00036
540 8.39000 3052.59148 3128.00000 0.00032
541 8.40000 3328.98000 3344.00000 0.00030
542 8.41000 3647.24473 3726.00000 0.00027
543 8.42000 4004.39263 4070.00000 0.00025
544 8.43000 4387.62567 4709.00000 0.00021
545 8.44000 4770.86377 4863.00000 0.00021
546 8.45000 5112.93812 5476.00000 0.00018
547 8.46000 5358.61450 5247.00000 0.00019
548 8.47000 5444.17395 5746.00000 0.00017
549 8.48000 5312.05903 5452.00000 0.00018
550 8.49000 4939.12333 5052.00000 0.00020
551 8.50000 4364.32731 4378.00000 0.00023
552 8.51000 3680.11544 3692.00000 0.00027
553 8.52000 2987.10331 2987.00000 0.00033
554 8.53000 2358.20783 2470.00000 0.00040
555 8.54000 1831.83223 1856.00000 0.00054
556 8.55000 1419.07256 1565.00000 0.00064
557 8.56000 1112.71318 1163.00000 0.00086
558 8.57000 895.26879 1006.00000 0.00099
559 8.58000 745.67641 831.00000 0.00120
560 8.59000 644.08365 704.00000 0.00142
561 8.60000 574.43495 641.00000 0.00156
562 8.61000 525.15549 596.00000 0.00168
563 8.62000 488.62724 479.00000 0.00209
564 8.63000 460.17353 483.00000 0.00207
565 8.64000 437.04807 476.00000 0.00210
566 8.65000 417.65682 421.00000 0.00238
567 8.66000 401.04888 429.00000 0.00233
568 8.67000 386.62055 456.00000 0.00219
569 8.68000 373.95753 450.00000 0.00222
570 8.69000 362.75495 413.00000 0.00242
571 8.70000 352.77717 380.00000 0.00263
572 8.71000 343.83645 329.00000 0.00304
573 8.72000 335.78043 336.00000 0.00298
574 8.73000 328.48403 338.00000 0.00296
575 8.74000 321.84368 324.00000 0.00309
576 8.75000 315.77298 301.00000 0.00332
577 8.76000 310.19940 334.00000 0.00299
578 8.77000 305.06168 310.00000 0.00323
579 8.78000 300.30781 315.00000 0.00317
580 8.79000 295.89338 269.00000 0.00372
581 8.80000 291.78031 276.00000 0.00362
582 8.81000 287.93577 290.00000 0.00345
583 8.82000 284.33133 265.00000 0.00377
584 8.83000 280.94231 270.00000 0.00370
585 8.84000 277.74714 270.00000 0.00370
586 8.85000 274.72695 271.00000 0.00369
587 8.86000 271.86516 277.00000 0.00361
588 8.87000 269.14712 252.00000 0.00397
589 8.88000 266.55991 250.00000 0.00400
590 8.89000 264.09204 266.00000 0.00376
591 8.90000 261.73329 235.00000 0.00426
592 8.91000 259.47453 224.00000 0.00446
593 8.92000 257.30762 208.00000 0.00481
594 8.93000 255.22524 217.00000 0.00461
595 8.94000 253.22080 226.00000 0.00442
596 8.95000 251.28839 228.00000 0.00439
597 8.96000 249.42265 224.00000 0.00446
598 8.97000 247.61873 227.00000 0.00441
599 8.98000 245.87224 238.00000 0.00420
600 8.99000 244.17920 216.00000 0.00463
601 9.00000 242.53596 205.00000 0.00488
602 9.01000 240.93921 203.00000 0.00493
603 9.02000 239.38593 208.00000 0.00481
604 9.03000 237.87335 214.00000 0.00467
605 9.04000 236.39893 222.00000 0.00450
606 9.05000 234.96034 212.00000 0.00472
607 9.06000 233.55544 230.00000 0.00435
608 9.07000 232.18226 241.00000 0.00415
609 9.08000 230.83898 222.00000 0.00450
610 9.09000 229.52392 191.00000 0.00524
611 9.10000 228.23553 191.00000 0.00524
612 9.11000 226.97237 186.00000 0.00538
613 9.12000 225.73312 223.00000 0.00448
614 9.13000 224.51655 201.00000 0.00498
615 9.14000 223.32150 218.00000 0.00459
616 9.15000 222.14691 204.00000 0.00490
617 9.16000 220.99180 206.00000 0.00485
618 9.17000 219.85523 198.00000 0.00505
619 9.18000 218.73634 215.00000 0.00465
620 9.19000 217.63433 172.00000 0.00581
621 9.20000 216.54845 192.00000 0.00521
622 9.21000 215.47800 188.00000 0.00532
623 9.22000 214.42231 197.00000 0.00508
624 9.23000 213.38077 186.00000 0.00538
625 9.24000 212.35280 195.00000 0.00513
626 9.25000 211.33786 211.00000 0.00474
627 9.26000 210.33543 196.00000 0.00510
628 9.27000 209.34505 180.00000 0.00556
629 9.28000 208.36625 195.00000 0.00513
630 9.29000 207.39862 178.00000 0.00562
631 9.30000 206.44174 197.00000 0.00508
632 9.31000 205.49525 197.00000 0.00508
633 9.32000 204.55880 194.00000 0.00515
634 9.33000 203.63203 218.00000 0.00459
635 9.34000 202.71466 213.00000 0.00469
636 9.35000 201.80638 181.00000 0.00552
637 9.36000 200.90691 179.00000 0.00559
638 9.37000 200.01599 221.00000 0.00452
639 9.38000 199.13336 197.00000 0.00508
640 9.39000 198.25878 186.00000 0.00538
641 9.40000 197.39203 180.00000 0.00556
642 9.41000 196.53288 205.00000 0.00488
643 9.42000 195.68114 204.00000 0.00490
644 9.43000 194.83662 193.00000 0.00518
645 9.44000 193.99912 214.00000 0.00467
646 9.45000 193.16847 219.00000 0.00457
647 9.46000 192.34451 187.00000 0.00535
648 9.47000 191.52709 186.00000 0.00538
649 9.48000 190.71605 219.00000 0.00457
650 9.49000 189.91125 218.00000 0.00459
651 9.50000 189.11257 203.00000 0.00493
652 9.51000 188.31986 207.00000 0.00483
653 9.52000 187.53302 208.00000 0.00481
654 9.53000 186.75194 182.00000 0.00549
655 9.54000 185.97650 210.00000 0.00476
656 9.55000 185.20661 207.00000 0.00483
657 9.56000 184.44218 197.00000 0.00508
658 9.57000 183.68314 213.00000 0.00469
659 9.58000 182.92940 190.00000 0.00526
660 9.59000 182.18091 195.00000 0.00513
661 9.60000 181.43763 218.00000 0.00459
662 9.61000 180.69957 188.00000 0.00532
663 9.62000 179.96675 198.00000 0.00505
664 9.63000 179.23936 204.00000 0.00490
665 9.64000 178.51799 203.00000 0.00493
666 9.65000 177.80731 205.00000 0.00488
667 9.66000 177.09207 202.00000 0.00495
668 9.67000 176.37994 197.00000 0.00508
669 9.68000 175.67221 207.00000 0.00483
670 9.69000 174.96883 207.00000 0.00483
671 9.70000 174.26972 200.00000 0.00500
672 9.71000 173.57485 208.00000 0.00481
673 9.72000 172.88416 201.00000 0.00498
674 9.73000 172.19759 204.00000 0.00490
675 9.74000 171.51509 185.00000 0.00541
676 9.75000 170.83663 175.00000 0.00571
677 9.76000 170.16215 196.00000 0.00510
678 9.77000 169.49161 172.00000 0.00581
679 9.78000 168.82498 165.00000 0.00606
680 9.79000 168.16220 150.00000 0.00667
681 9.80000 167.50324 192.00000 0.00521
682 9.81000 166.84807 187.00000 0.00535
683 9.82000 166.19664 167.00000 0.00599
684 9.83000 165.54893 179.00000 0.00559
685 9.84000 164.90490 146.00000 0.00685
686 9.85000 164.26451 181.00000 0.00552
687 9.86000 163.62774 172.00000 0.00581
688 9.87000 162.99456 179.00000 0.00559
689 9.88000 162.36494 154.00000 0.00649
690 9.89000 161.73884 147.00000 0.00680
691 9.90000 161.11625 151.00000 0.00662
692 9.91000 160.49713 131.00000 0.00763
693 9.92000 159.88147 129.00000 0.00775
694 9.93000 159.26924 160.00000 0.00625
695 9.94000 158.66044 162.00000 0.00617
696 9.95000 158.05504 147.00000 0.00680
697 9.96000 157.45302 159.00000 0.00629
698 9.97000 156.85435 167.00000 0.00599
699 9.98000 156.25902 157.00000 0.00637
700 9.99000 155.66701 131.00000 0.00763
701 10.00000 155.07831 123.00000 0.00813
702 10.01000 154.49289 132.00000 0.00758
703 10.02000 153.91074 133.00000 0.00752
704 10.03000 153.33184 126.00000 0.00794
705 10.04000 152.75618 119.00000 0.00840
706 10.05000 152.18375 124.00000 0.00806
707 10.06000 151.61454 133.00000 0.00752
708 10.07000 151.04852 138.00000 0.00725
709 10.08000 150.48570 137.00000 0.00730
710 10.09000 149.92605 122.00000 0.00820
711 10.10000 149.36958 133.00000 0.00752
712 10.11000 148.81628 125.00000 0.00800
713 10.12000 148.26614 125.00000 0.00800
714 10.13000 147.71917 134.00000 0.00746
715 10.14000 147.17535 119.00000 0.00840
716 10.15000 146.63471 134.00000 0.00746
717 10.16000 146.09725 131.00000 0.00763
718 10.17000 145.56299 114.00000 0.00877
719 10.18000 145.03199 134.00000 0.00746
720 10.19000 144.50430 137.00000 0.00730
721 10.20000 143.98010 109.00000 0.00917
722 10.21000 143.45974 109.00000 0.00917
723 10.22000 142.94509 122.00000 0.00820
724 10.23000 142.43278 131.00000 0.00763
725 10.24000 141.91826 116.00000 0.00862
726 10.25000 141.40669 123.00000 0.00813
727 10.26000 140.89806 119.00000 0.00840
728 10.27000 140.39237 124.00000 0.00806
729 10.28000 139.88960 120.00000 0.00833
730 10.29000 139.38975 125.00000 0.00800
731 10.30000 138.89281 128.00000 0.00781
732 10.31000 138.39878 114.00000 0.00877
733 10.32000 137.90764 130.00000 0.00769
734 10.33000 137.41939 126.00000 0.00794
735 10.34000 136.93403 133.00000 0.00752
736 10.35000 136.45154 117.00000 0.00855
737 10.36000 135.97192 118.00000 0.00847
738 10.37000 135.49517 116.00000 0.00862
739 10.38000 135.02128 104.00000 0.00962
740 10.39000 134.55024 135.00000 0.00741
741 10.40000 134.08206 109.00000 0.00917
742 10.41000 133.61671 104.00000 0.00962
743 10.42000 133.15421 115.00000 0.00870
744 10.43000 132.69454 117.00000 0.00855
745 10.44000 132.23770 117.00000 0.00855
746 10.45000 131.78369 105.00000 0.00952
747 10.46000 131.33250 101.00000 0.00990
748 10.47000 130.88413 136.00000 0.00735
749 10.48000 130.43858 113.00000 0.00885
750 10.49000 129.99584 115.00000 0.00870
751 10.50000 129.55591 103.00000 0.00971
752 10.51000 129.11879 120.00000 0.00833
753 10.52000 128.68447 116.00000 0.00862
754 10.53000 128.25296 120.00000 0.00833
755 10.54000 127.82425 132.00000 0.00758
756 10.55000 127.39834 124.00000 0.00806
757 10.56000 126.97522 126.00000 0.00794
758 10.57000 126.55491 95.00000 0.01053
759 10.58000 126.13739 117.00000 0.00855
760 10.59000 125.72267 131.00000 0.00763
761 10.60000 125.31074 123.00000 0.00813
762 10.61000 124.90161 111.00000 0.00901
763 10.62000 124.49528 109.00000 0.00917
764 10.63000 124.09174 114.00000 0.00877
765 10.64000 123.69100 111.00000 0.00901
766 10.65000 123.29306 114.00000 0.00877
767 10.66000 122.89793 130.00000 0.00769
768 10.67000 122.50560 110.00000 0.00909
769 10.68000 122.11607 105.00000 0.00952
770 10.69000 121.72924 111.00000 0.00901
771 10.70000 121.34506 97.00000 0.01031
772 10.71000 120.96354 98.00000 0.01020
773 10.72000 120.58467 118.00000 0.00847
774 10.73000 120.20846 93.00000 0.01075
775 10.74000 119.83490 99.00000 0.01010
776 10.75000 119.46401 94.00000 0.01064
777 10.76000 119.09578 100.00000 0.01000
778 10.77000 118.73021 109.00000 0.00917
779 10.78000 118.36731 89.00000 0.01124
780 10.79000 118.00708 102.00000 0.00980
781 10.80000 117.64953 115.00000 0.00870
782 10.81000 117.29466 116.00000 0.00862
783 10.82000 116.94247 106.00000 0.00943
784 10.83000 116.59297 93.00000 0.01075
785 10.84000 116.24617 104.00000 0.00962
786 10.85000 115.90207 104.00000 0.00962
787 10.86000 115.56068 107.00000 0.00935
788 10.87000 115.22201 117.00000 0.00855
789 10.88000 114.88606 96.00000 0.01042
790 10.89000 114.55284 111.00000 0.00901
791 10.90000 114.22237 115.00000 0.00870
792 10.91000 113.89464 117.00000 0.00855
793 10.92000 113.56968 114.00000 0.00877
794 10.93000 113.24750 105.00000 0.00952
795 10.94000 112.92810 108.00000 0.00926
796 10.95000 112.61150 109.00000 0.00917
797 10.96000 112.29771 89.00000 0.01124
798 10.97000 111.98675 122.00000 0.00820
799 10.98000 111.67863 108.00000 0.00926
800 10.99000 111.37337 90.00000 0.01111
801 11.00000 111.07098 102.00000 0.00980
802 11.01000 110.77148 102.00000 0.00980
803 11.02000 110.47490 102.00000 0.00980
804 11.03000 110.18124 87.00000 0.01149
805 11.04000 109.89052 101.00000 0.00990
806 11.05000 109.60277 114.00000 0.00877
807 11.06000 109.31801 112.00000 0.00893
808 11.07000 109.03626 105.00000 0.00952
809 11.08000 108.75753 108.00000 0.00926
810 11.09000 108.48186 114.00000 0.00877
811 11.10000 108.20925 106.00000 0.00943
812 11.11000 107.93972 111.00000 0.00901
813 11.12000 107.67330 100.00000 0.01000
814 11.13000 107.40999 113.00000 0.00885
815 11.14000 107.14980 112.00000 0.00893
816 11.15000 106.89274 109.00000 0.00917
817 11.16000 106.63880 108.00000 0.00926
818 11.17000 106.38797 107.00000 0.00935
819 11.18000 106.14020 110.00000 0.00909
820 11.19000 105.89546 101.00000 0.00990
821 11.20000 105.65366 110.00000 0.00909
822 11.21000 105.41466 117.00000 0.00855
823 11.22000 105.17829 111.00000 0.00901
824 11.23000 104.94426 109.00000 0.00917
825 11.24000 104.71215 101.00000 0.00990
826 11.25000 104.48132 101.00000 0.00990
827 11.26000 104.25075 110.00000 0.00909
828 11.27000 104.01872 102.00000 0.00980
829 11.28000 103.78204 102.00000 0.00980
830 11.29000 103.53377 98.00000 0.01020
831 11.30000 103.25180 98.00000 0.01020
832 11.31000 102.85743 126.00000 0.00794
833 11.32000 102.71940 101.00000 0.00990
834 11.33000 102.58934 108.00000 0.00926
835 11.34000 102.46768 120.00000 0.00833
836 11.35000 102.35490 98.00000 0.01020
837 11.36000 102.25154 97.00000 0.01031
838 11.37000 102.15818 95.00000 0.01053
839 11.38000 102.07548 104.00000 0.00962
840 11.39000 102.00417 100.00000 0.01000
841 11.40000 101.94506 113.00000 0.00885
842 11.41000 101.89907 100.00000 0.01000
843 11.42000 101.86720 104.00000 0.00962
844 11.43000 101.85063 88.00000 0.01136
845 11.44000 101.85066 88.00000 0.01136
846 11.45000 101.86877 110.00000 0.00909
847 11.46000 101.90667 111.00000 0.00901
848 11.47000 101.96632 107.00000 0.00935
849 11.48000 102.05000 123.00000 0.00813
850 11.49000 102.16036 126.00000 0.00794
851 11.50000 102.30058 95.00000 0.01053
852 11.51000 102.47448 106.00000 0.00943
853 11.52000 102.68686 106.00000 0.00943
854 11.53000 102.94385 101.00000 0.00990
855 11.54000 103.25364 105.00000 0.00952
856 11.55000 103.62743 131.00000 0.00763
857 11.56000 104.08077 115.00000 0.00870
858 11.57000 104.63516 105.00000 0.00952
859 11.58000 105.31988 110.00000 0.00909
860 11.59000 106.17353 101.00000 0.00990
861 11.60000 107.24490 107.00000 0.00935
862 11.61000 108.59253 117.00000 0.00855
863 11.62000 110.28175 133.00000 0.00752
864 11.63000 112.37830 136.00000 0.00735
865 11.64000 114.93778 120.00000 0.00833
866 11.65000 117.99429 130.00000 0.00769
867 11.66000 121.55529 122.00000 0.00820
868 11.67000 125.60646 125.00000 0.00800
869 11.68000 130.12245 123.00000 0.00813
870 11.69000 135.07659 129.00000 0.00775
871 11.70000 140.44732 140.00000 0.00714
872 11.71000 146.22141 120.00000 0.00833
873 11.72000 152.39521 162.00000 0.00617
874 11.73000 158.97468 136.00000 0.00735
875 11.74000 165.97482 148.00000 0.00676
876 11.75000 173.41885 150.00000 0.00667
877 11.76000 181.33769 154.00000 0.00649
878 11.77000 189.76962 161.00000 0.00621
879 11.78000 198.76058 191.00000 0.00524
880 11.79000 208.36482 200.00000 0.00500
881 11.80000 218.64611 232.00000 0.00431
882 11.81000 229.67949 220.00000 0.00455
883 11.82000 241.55376 231.00000 0.00433
884 11.83000 254.37490 226.00000 0.00442
885 11.84000 268.27098 237.00000 0.00422
886 11.85000 283.39917 257.00000 0.00389
887 11.86000 299.95584 282.00000 0.00355
888 11.87000 318.19076 341.00000 0.00293
889 11.88000 338.42551 310.00000 0.00323
890 11.89000 361.07372 337.00000 0.00297
891 11.90000 386.65559 356.00000 0.00281
892 11.91000 415.79046 416.00000 0.00240
893 11.92000 449.14200 480.00000 0.00208
894 11.93000 487.28458 530.00000 0.00189
895 11.94000 530.46615 585.00000 0.00171
896 11.95000 578.26604 655.00000 0.00153
897 11.96000 629.18332 645.00000 0.00155
898 11.97000 680.22107 777.00000 0.00129
899 11.98000 726.53991 824.00000 0.00121
900 11.99000 761.28469 825.00000 0.00121
901 12.00000 775.93621 801.00000 0.00125
902 12.01000 762.16368 827.00000 0.00121
903 12.02000 716.10907 741.00000 0.00135
904 12.03000 642.79510 690.00000 0.00145
905 12.04000 554.94512 645.00000 0.00155
906 12.05000 466.19257 484.00000 0.00207
907 12.06000 385.86401 394.00000 0.00254
908 12.07000 318.36997 325.00000 0.00308
909 12.08000 264.67746 291.00000 0.00344
910 12.09000 223.74785 239.00000 0.00418
911 12.10000 193.53762 197.00000 0.00508
912 12.11000 171.68505 188.00000 0.00532
913 12.12000 155.96487 146.00000 0.00685
914 12.13000 144.53665 141.00000 0.00709
915 12.14000 136.02136 144.00000 0.00694
916 12.15000 129.46265 145.00000 0.00690
917 12.16000 124.23428 127.00000 0.00787
918 12.17000 119.93985 117.00000 0.00855
919 12.18000 116.33001 118.00000 0.00847
920 12.19000 113.24420 125.00000 0.00800
921 12.20000 110.57414 118.00000 0.00847
922 12.21000 108.24258 119.00000 0.00840
923 12.22000 106.19157 116.00000 0.00862
924 12.23000 104.37600 135.00000 0.00741
925 12.24000 102.75984 115.00000 0.00870
926 12.25000 101.31388 106.00000 0.00943
927 12.26000 100.01419 106.00000 0.00943
928 12.27000 98.84107 108.00000 0.00926
929 12.28000 97.77832 92.00000 0.01087
930 12.29000 96.81334 94.00000 0.01064
931 12.30000 95.93854 99.00000 0.01010
932 12.31000 95.12422 103.00000 0.00971
933 12.32000 94.37496 106.00000 0.00943
934 12.33000 93.68347 105.00000 0.00952
935 12.34000 93.04340 95.00000 0.01053
936 12.35000 92.44931 116.00000 0.00862
937 12.36000 91.89642 113.00000 0.00885
938 12.37000 91.38057 113.00000 0.00885
939 12.38000 90.89810 113.00000 0.00885
940 12.39000 90.44579 111.00000 0.00901
941 12.40000 90.02076 91.00000 0.01099
942 12.41000 89.62047 124.00000 0.00806
943 12.42000 89.24260 122.00000 0.00820
944 12.43000 88.88507 116.00000 0.00862
945 12.44000 88.54596 119.00000 0.00840
946 12.45000 88.22347 104.00000 0.00962
947 12.46000 87.91584 114.00000 0.00877
948 12.47000 87.62132 117.00000 0.00855
949 12.48000 87.33797 114.00000 0.00877
950 12.49000 87.06333 103.00000 0.00971
951 12.50000 86.79346 93.00000 0.01075
952 12.51000 86.51810 90.00000 0.01111
953 12.52000 86.20493 111.00000 0.00901
954 12.53000 86.00361 110.00000 0.00909
955 12.54000 85.81173 90.00000 0.01111
956 12.55000 85.62873 94.00000 0.01064
957 12.56000 85.45408 106.00000 0.00943
958 12.57000 85.28729 115.00000 0.00870
959 12.58000 85.12794 88.00000 0.01136
960 12.59000 84.97562 107.00000 0.00935
961 12.60000 84.82995 107.00000 0.00935
962 12.61000 84.69059 99.00000 0.01010
963 12.62000 84.55722 103.00000 0.00971
964 12.63000 84.42955 104.00000 0.00962
965 12.64000 84.30731 110.00000 0.00909
966 12.65000 84.19025 103.00000 0.00971
967 12.66000 84.07814 101.00000 0.00990
968 12.67000 83.97075 105.00000 0.00952
969 12.68000 83.86790 113.00000 0.00885
970 12.69000 83.76939 105.00000 0.00952
971 12.70000 83.67505 101.00000 0.00990
972 12.71000 83.58472 113.00000 0.00885
973 12.72000 83.49824 94.00000 0.01064
974 12.73000 83.41548 91.00000 0.01099
975 12.74000 83.33631 103.00000 0.00971
976 12.75000 83.26059 99.00000 0.01010
977 12.76000 83.18822 97.00000 0.01031
978 12.77000 83.11909 97.00000 0.01031
979 12.78000 83.05310 77.00000 0.01299
980 12.79000 82.99015 93.00000 0.01075
981 12.80000 82.93015 77.00000 0.01299
982 12.81000 82.87302 91.00000 0.01099
983 12.82000 82.81869 107.00000 0.00935
984 12.83000 82.76708 100.00000 0.01000
985 12.84000 82.71812 78.00000 0.01282
986 12.85000 82.67174 92.00000 0.01087
987 12.86000 82.62790 98.00000 0.01020
988 12.87000 82.58652 94.00000 0.01064
989 12.88000 82.54756 94.00000 0.01064
990 12.89000 82.51098 82.00000 0.01220
991 12.90000 82.47671 78.00000 0.01282
992 12.91000 82.44472 83.00000 0.01205
993 12.92000 82.41498 67.00000 0.01493
994 12.93000 82.38743 94.00000 0.01064
995 12.94000 82.36205 91.00000 0.01099
996 12.95000 82.33881 101.00000 0.00990
997 12.96000 82.31767 98.00000 0.01020
998 12.97000 82.29860 88.00000 0.01136
999 12.98000 82.28159 93.00000 0.01075
1000 12.99000 82.26661 99.00000 0.01010
1001 13.00000 82.25364 99.00000 0.01010
1002 13.01000 82.24266 84.00000 0.01190
1003 13.02000 82.23365 89.00000 0.01124
1004 13.03000 82.22660 95.00000 0.01053
1005 13.04000 82.22149 97.00000 0.01031
1006 13.05000 82.21833 71.00000 0.01408
1007 13.06000 82.21709 83.00000 0.01205
1008 13.07000 82.21777 103.00000 0.00971
1009 13.08000 82.22037 88.00000 0.01136
1010 13.09000 82.22488 73.00000 0.01370
1011 13.10000 82.23131 103.00000 0.00971
1012 13.11000 82.23965 89.00000 0.01124
1013 13.12000 82.24992 77.00000 0.01299
1014 13.13000 82.26211 80.00000 0.01250
1015 13.14000 82.27624 95.00000 0.01053
1016 13.15000 82.29232 86.00000 0.01163
1017 13.16000 82.31036 89.00000 0.01124
1018 13.17000 82.33037 96.00000 0.01042
1019 13.18000 82.35238 96.00000 0.01042
1020 13.19000 82.37640 76.00000 0.01316
1021 13.20000 82.40247 91.00000 0.01099
1022 13.21000 82.43060 100.00000 0.01000
1023 13.22000 82.46083 85.00000 0.01176
1024 13.23000 82.49320 86.00000 0.01163
1025 13.24000 82.52773 88.00000 0.01136
1026 13.25000 82.56448 94.00000 0.01064
1027 13.26000 82.60349 76.00000 0.01316
1028 13.27000 82.64480 71.00000 0.01408
1029 13.28000 82.68848 85.00000 0.01176
1030 13.29000 82.73458 102.00000 0.00980
1031 13.30000 82.78316 94.00000 0.01064
1032 13.31000 82.83431 69.00000 0.01449
1033 13.32000 82.88810 90.00000 0.01111
1034 13.33000 82.94461 78.00000 0.01282
1035 13.34000 83.00393 97.00000 0.01031
1036 13.35000 83.06617 81.00000 0.01235
1037 13.36000 83.13144 78.00000 0.01282
1038 13.37000 83.19986 75.00000 0.01333
1039 13.38000 83.27155 91.00000 0.01099
1040 13.39000 83.34665 102.00000 0.00980
1041 13.40000 83.42534 94.00000 0.01064
1042 13.41000 83.50776 88.00000 0.01136
1043 13.42000 83.59412 93.00000 0.01075
1044 13.43000 83.68461 86.00000 0.01163
1045 13.44000 83.77946 85.00000 0.01176
1046 13.45000 83.87894 94.00000 0.01064
1047 13.46000 83.98332 87.00000 0.01149
1048 13.47000 84.09289 89.00000 0.01124
1049 13.48000 84.20799 93.00000 0.01075
1050 13.49000 84.32897 92.00000 0.01087
1051 13.50000 84.45624 95.00000 0.01053
1052 13.51000 84.59025 80.00000 0.01250
1053 13.52000 84.73150 83.00000 0.01205
1054 13.53000 84.88053 100.00000 0.01000
1055 13.54000 85.03797 87.00000 0.01149
1056 13.55000 85.20453 84.00000 0.01190
1057 13.56000 85.38098 82.00000 0.01220
1058 13.57000 85.56823 94.00000 0.01064
1059 13.58000 85.76727 86.00000 0.01163
1060 13.59000 85.97926 81.00000 0.01235
1061 13.60000 86.20553 103.00000 0.00971
1062 13.61000 86.44761 90.00000 0.01111
1063 13.62000 86.70726 79.00000 0.01266
1064 13.63000 86.98660 82.00000 0.01220
1065 13.64000 87.28810 106.00000 0.00943
1066 13.65000 87.61486 83.00000 0.01205
1067 13.66000 87.97089 90.00000 0.01111
1068 13.67000 88.36375 88.00000 0.01136
1069 13.68000 88.79053 91.00000 0.01099
1070 13.69000 89.25980 88.00000 0.01136
1071 13.70000 89.78488 100.00000 0.01000
1072 13.71000 90.37925 82.00000 0.01220
1073 13.72000 91.06092 110.00000 0.00909
1074 13.73000 91.85345 116.00000 0.00862
1075 13.74000 92.78678 105.00000 0.00952
1076 13.75000 93.89748 76.00000 0.01316
1077 13.76000 95.22777 90.00000 0.01111
1078 13.77000 96.82262 85.00000 0.01176
1079 13.78000 98.72394 98.00000 0.01020
1080 13.79000 100.96308 105.00000 0.00952
1081 13.80000 103.55554 102.00000 0.00980
1082 13.81000 106.50197 113.00000 0.00885
1083 13.82000 109.79423 126.00000 0.00794
1084 13.83000 113.42236 131.00000 0.00763
1085 13.84000 117.37942 138.00000 0.00725
1086 13.85000 121.66426 122.00000 0.00820
1087 13.86000 126.28273 131.00000 0.00763
1088 13.87000 131.24820 140.00000 0.00714
1089 13.88000 136.58177 133.00000 0.00752
1090 13.89000 142.31238 135.00000 0.00741
1091 13.90000 148.47720 148.00000 0.00676
1092 13.91000 155.12243 147.00000 0.00680
1093 13.92000 162.30481 149.00000 0.00671
1094 13.93000 170.09399 174.00000 0.00575
1095 13.94000 178.57608 174.00000 0.00575
1096 13.95000 187.85884 187.00000 0.00535
1097 13.96000 198.07836 186.00000 0.00538
1098 13.97000 209.40676 188.00000 0.00532
1099 13.98000 222.05854 229.00000 0.00437
1100 13.99000 236.29047 273.00000 0.00366
1101 14.00000 252.38665 245.00000 0.00408
1102 14.01000 270.61744 273.00000 0.00366
1103 14.02000 291.16118 285.00000 0.00351
1104 14.03000 313.98281 345.00000 0.00290
1105 14.04000 338.67270 335.00000 0.00299
1106 14.05000 364.25804 397.00000 0.00252
1107 14.06000 389.00122 406.00000 0.00246
1108 14.07000 410.20683 442.00000 0.00226
1109 14.08000 424.13668 464.00000 0.00216
1110 14.09000 426.39461 413.00000 0.00242
1111 14.10000 413.43700 433.00000 0.00231
1112 14.11000 385.10548 416.00000 0.00240
1113 14.12000 345.90381 368.00000 0.00272
1114 14.13000 302.77430 307.00000 0.00326
1115 14.14000 261.59207 303.00000 0.00330
1116 14.15000 225.66112 257.00000 0.00389
1117 14.16000 196.14088 205.00000 0.00488
1118 14.17000 172.91382 179.00000 0.00559
1119 14.18000 155.21992 166.00000 0.00602
1120 14.19000 142.04263 161.00000 0.00621
1121 14.20000 132.34486 136.00000 0.00735
1122 14.21000 125.20769 115.00000 0.00870
1123 14.22000 119.89435 126.00000 0.00794
1124 14.23000 115.85869 133.00000 0.00752
1125 14.24000 112.71976 92.00000 0.01087
1126 14.25000 110.22288 113.00000 0.00885
1127 14.26000 108.20131 112.00000 0.00893
1128 14.27000 106.54568 121.00000 0.00826
1129 14.28000 105.18259 115.00000 0.00870
1130 14.29000 104.06103 98.00000 0.01020
1131 14.30000 103.14440 107.00000 0.00935
1132 14.31000 102.40588 124.00000 0.00806
1133 14.32000 101.82594 123.00000 0.00813
1134 14.33000 101.39102 119.00000 0.00840
1135 14.34000 101.09297 94.00000 0.01064
1136 14.35000 100.92889 114.00000 0.00877
1137 14.36000 100.90146 108.00000 0.00926
1138 14.37000 101.01940 115.00000 0.00870
1139 14.38000 101.29792 108.00000 0.00926
1140 14.39000 101.75902 126.00000 0.00794
1141 14.40000 102.43114 120.00000 0.00833
1142 14.41000 103.34757 121.00000 0.00826
1143 14.42000 104.54271 121.00000 0.00826
1144 14.43000 106.04617 124.00000 0.00806
1145 14.44000 107.87666 131.00000 0.00763
1146 14.45000 110.03971 129.00000 0.00775
1147 14.46000 112.53098 126.00000 0.00794
1148 14.47000 115.34216 142.00000 0.00704
1149 14.48000 118.46617 119.00000 0.00840
1150 14.49000 121.90034 137.00000 0.00730
1151 14.50000 125.64807 121.00000 0.00826
1152 14.51000 129.71961 121.00000 0.00826
1153 14.52000 134.13240 136.00000 0.00735
1154 14.53000 138.91145 131.00000 0.00763
1155 14.54000 144.08978 147.00000 0.00680
1156 14.55000 149.70942 164.00000 0.00610
1157 14.56000 155.82293 157.00000 0.00637
1158 14.57000 162.49597 149.00000 0.00671
1159 14.58000 169.81091 150.00000 0.00667
1160 14.59000 177.87167 157.00000 0.00637
1161 14.60000 186.80927 175.00000 0.00571
1162 14.61000 196.78624 192.00000 0.00521
1163 14.62000 207.99646 168.00000 0.00595
1164 14.63000 220.65415 216.00000 0.00463
1165 14.64000 234.96410 240.00000 0.00417
1166 14.65000 251.06489 237.00000 0.00422
1167 14.66000 268.94040 267.00000 0.00375
1168 14.67000 288.30059 288.00000 0.00347
1169 14.68000 308.43798 351.00000 0.00285
1170 14.69000 328.06694 365.00000 0.00274
1171 14.70000 345.15882 333.00000 0.00300
1172 14.71000 356.84463 328.00000 0.00305
1173 14.72000 359.65973 358.00000 0.00279
1174 14.73000 350.65214 317.00000 0.00315
1175 14.74000 329.38309 281.00000 0.00356
1176 14.75000 299.10823 307.00000 0.00326
1177 14.76000 265.24911 273.00000 0.00366
1178 14.77000 232.58228 242.00000 0.00413
1179 14.78000 203.86959 205.00000 0.00488
1180 14.79000 180.11865 172.00000 0.00581
1181 14.80000 161.28569 173.00000 0.00578
1182 14.81000 146.80433 129.00000 0.00775
1183 14.82000 135.90007 117.00000 0.00855
1184 14.83000 127.77522 139.00000 0.00719
1185 14.84000 121.71583 123.00000 0.00813
1186 14.85000 117.14234 118.00000 0.00847
1187 14.86000 113.61883 102.00000 0.00980
1188 14.87000 110.83628 110.00000 0.00909
1189 14.88000 108.58454 90.00000 0.01111
1190 14.89000 106.72358 108.00000 0.00926
1191 14.90000 105.15995 91.00000 0.01099
1192 14.91000 103.82974 117.00000 0.00855
1193 14.92000 102.68761 82.00000 0.01220
1194 14.93000 101.70001 83.00000 0.01205
1195 14.94000 100.84117 100.00000 0.01000
1196 14.95000 100.09076 105.00000 0.00952
1197 14.96000 99.43241 103.00000 0.00971
1198 14.97000 98.85279 96.00000 0.01042
1199 14.98000 98.34088 93.00000 0.01075
1200 14.99000 97.88755 112.00000 0.00893
1201 15.00000 97.48516 91.00000 0.01099
1202 15.01000 97.12729 90.00000 0.01111
1203 15.02000 96.80849 90.00000 0.01111
1204 15.03000 96.52413 83.00000 0.01205
1205 15.04000 96.27026 85.00000 0.01176
1206 15.05000 96.04348 101.00000 0.00990
1207 15.06000 95.84085 104.00000 0.00962
1208 15.07000 95.65982 95.00000 0.01053
1209 15.08000 95.49819 88.00000 0.01136
1210 15.09000 95.35403 85.00000 0.01176
1211 15.10000 95.22563 101.00000 0.00990
1212 15.11000 95.11150 82.00000 0.01220
1213 15.12000 95.01034 94.00000 0.01064
1214 15.13000 94.92097 89.00000 0.01124
1215 15.14000 94.84236 106.00000 0.00943
1216 15.15000 94.77359 87.00000 0.01149
1217 15.16000 94.71383 93.00000 0.01075
1218 15.17000 94.66236 106.00000 0.00943
1219 15.18000 94.61850 83.00000 0.01205
1220 15.19000 94.58167 91.00000 0.01099
1221 15.20000 94.55133 92.00000 0.01087
1222 15.21000 94.52700 80.00000 0.01250
1223 15.22000 94.50823 83.00000 0.01205
1224 15.23000 94.49463 85.00000 0.01176
1225 15.24000 94.48583 90.00000 0.01111
1226 15.25000 94.48152 83.00000 0.01205
1227 15.26000 94.48138 103.00000 0.00971
1228 15.27000 94.48515 101.00000 0.00990
1229 15.28000 94.49257 93.00000 0.01075
1230 15.29000 94.50341 83.00000 0.01205
1231 15.30000 94.51746 80.00000 0.01250
1232 15.31000 94.53454 113.00000 0.00885
1233 15.32000 94.55445 73.00000 0.01370
1234 15.33000 94.57703 102.00000 0.00980
1235 15.34000 94.60214 93.00000 0.01075
1236 15.35000 94.62962 83.00000 0.01205
1237 15.36000 94.65936 88.00000 0.01136
1238 15.37000 94.69123 103.00000 0.00971
1239 15.38000 94.72512 101.00000 0.00990
1240 15.39000 94.76093 100.00000 0.01000
1241 15.40000 94.79856 86.00000 0.01163
1242 15.41000 94.83792 104.00000 0.00962
1243 15.42000 94.87892 76.00000 0.01316
1244 15.43000 94.92150 101.00000 0.00990
1245 15.44000 94.96558 77.00000 0.01299
1246 15.45000 95.01109 103.00000 0.00971
1247 15.46000 95.05797 96.00000 0.01042
1248 15.47000 95.10616 89.00000 0.01124
1249 15.48000 95.15561 96.00000 0.01042
1250 15.49000 95.20626 90.00000 0.01111
1251 15.50000 95.25807 93.00000 0.01075
1252 15.51000 95.31103 83.00000 0.01205
1253 15.52000 95.36512 79.00000 0.01266
1254 15.53000 95.42032 73.00000 0.01370
1255 15.54000 95.47659 81.00000 0.01235
1256 15.55000 95.53390 99.00000 0.01010
1257 15.56000 95.59224 83.00000 0.01205
1258 15.57000 95.65157 103.00000 0.00971
1259 15.58000 95.71189 91.00000 0.01099
1260 15.59000 95.77318 95.00000 0.01053
1261 15.60000 95.83544 94.00000 0.01064
1262 15.61000 95.89865 88.00000 0.01136
1263 15.62000 95.96283 86.00000 0.01163
1264 15.63000 96.02799 100.00000 0.01000
1265 15.64000 96.09414 108.00000 0.00926
1266 15.65000 96.16132 92.00000 0.01087
1267 15.66000 96.22960 104.00000 0.00962
1268 15.67000 96.29908 111.00000 0.00901
1269 15.68000 96.36993 100.00000 0.01000
1270 15.69000 96.44250 88.00000 0.01136
1271 15.70000 96.51765 99.00000 0.01010
1272 15.71000 96.60002 82.00000 0.01220
1273 15.72000 96.67963 84.00000 0.01190
1274 15.73000 96.75046 97.00000 0.01031
1275 15.74000 96.82192 106.00000 0.00943
1276 15.75000 96.89402 94.00000 0.01064
1277 15.76000 96.96675 94.00000 0.01064
1278 15.77000 97.04011 82.00000 0.01220
1279 15.78000 97.11409 94.00000 0.01064
1280 15.79000 97.18869 94.00000 0.01064
1281 15.80000 97.26391 100.00000 0.01000
1282 15.81000 97.33976 89.00000 0.01124
1283 15.82000 97.41623 93.00000 0.01075
1284 15.83000 97.49332 97.00000 0.01031
1285 15.84000 97.57104 118.00000 0.00847
1286 15.85000 97.64940 107.00000 0.00935
1287 15.86000 97.72840 86.00000 0.01163
1288 15.87000 97.80804 85.00000 0.01176
1289 15.88000 97.88832 103.00000 0.00971
1290 15.89000 97.96927 100.00000 0.01000
1291 15.90000 98.05089 96.00000 0.01042
1292 15.91000 98.13318 90.00000 0.01111
1293 15.92000 98.21615 104.00000 0.00962
1294 15.93000 98.29983 105.00000 0.00952
1295 15.94000 98.38418 115.00000 0.00870
1296 15.95000 98.46924 93.00000 0.01075
1297 15.96000 98.55502 91.00000 0.01099
1298 15.97000 98.64152 98.00000 0.01020
1299 15.98000 98.72877 90.00000 0.01111
1300 15.99000 98.81678 77.00000 0.01299
1301 16.00000 98.90558 92.00000 0.01087
1302 16.01000 98.99518 99.00000 0.01010
1303 16.02000 99.08561 96.00000 0.01042
1304 16.03000 99.17689 98.00000 0.01020
1305 16.04000 99.26904 102.00000 0.00980
1306 16.05000 99.36209 87.00000 0.01149
1307 16.06000 99.45607 99.00000 0.01010
1308 16.07000 99.55101 82.00000 0.01220
1309 16.08000 99.64694 101.00000 0.00990
1310 16.09000 99.74390 85.00000 0.01176
1311 16.10000 99.84192 96.00000 0.01042
1312 16.11000 99.94104 97.00000 0.01031
1313 16.12000 100.04130 83.00000 0.01205
1314 16.13000 100.14274 103.00000 0.00971
1315 16.14000 100.24541 81.00000 0.01235
1316 16.15000 100.34936 75.00000 0.01333
1317 16.16000 100.45463 101.00000 0.00990
1318 16.17000 100.56127 92.00000 0.01087
1319 16.18000 100.66935 104.00000 0.00962
1320 16.19000 100.77892 116.00000 0.00862
1321 16.20000 100.89003 104.00000 0.00962
1322 16.21000 101.00274 81.00000 0.01235
1323 16.22000 101.11712 93.00000 0.01075
1324 16.23000 101.23322 98.00000 0.01020
1325 16.24000 101.35109 112.00000 0.00893
1326 16.25000 101.47077 93.00000 0.01075
1327 16.26000 101.59226 100.00000 0.01000
1328 16.27000 101.71552 99.00000 0.01010
1329 16.28000 101.84038 106.00000 0.00943
1330 16.29000 101.96627 77.00000 0.01299
1331 16.30000 102.09065 90.00000 0.01111
1332 16.31000 102.21474 98.00000 0.01020
1333 16.32000 102.35632 107.00000 0.00935
1334 16.33000 102.50125 110.00000 0.00909
1335 16.34000 102.64972 88.00000 0.01136
1336 16.35000 102.80198 80.00000 0.01250
1337 16.36000 102.95826 96.00000 0.01042
1338 16.37000 103.11882 110.00000 0.00909
1339 16.38000 103.28396 102.00000 0.00980
1340 16.39000 103.45398 102.00000 0.00980
1341 16.40000 103.62924 114.00000 0.00877
1342 16.41000 103.81010 111.00000 0.00901
1343 16.42000 103.99697 110.00000 0.00909
1344 16.43000 104.19030 104.00000 0.00962
1345 16.44000 104.39060 107.00000 0.00935
1346 16.45000 104.59839 112.00000 0.00893
1347 16.46000 104.81428 102.00000 0.00980
1348 16.47000 105.03894 124.00000 0.00806
1349 16.48000 105.27310 123.00000 0.00813
1350 16.49000 105.51758 113.00000 0.00885
1351 16.50000 105.77329 100.00000 0.01000
1352 16.51000 106.04126 106.00000 0.00943
1353 16.52000 106.32262 119.00000 0.00840
1354 16.53000 106.61865 101.00000 0.00990
1355 16.54000 106.93082 109.00000 0.00917
1356 16.55000 107.26075 99.00000 0.01010
1357 16.56000 107.61031 116.00000 0.00862
1358 16.57000 107.98164 109.00000 0.00917
1359 16.58000 108.37715 96.00000 0.01042
1360 16.59000 108.79968 88.00000 0.01136
1361 16.60000 109.25246 93.00000 0.01075
1362 16.61000 109.73930 82.00000 0.01220
1363 16.62000 110.26467 105.00000 0.00952
1364 16.63000 110.83391 114.00000 0.00877
1365 16.64000 111.45347 114.00000 0.00877
1366 16.65000 112.13121 107.00000 0.00935
1367 16.66000 112.87694 115.00000 0.00870
1368 16.67000 113.70312 114.00000 0.00877
1369 16.68000 114.62578 107.00000 0.00935
1370 16.69000 115.66572 107.00000 0.00935
1371 16.70000 116.84997 124.00000 0.00806
1372 16.71000 118.21332 119.00000 0.00840
1373 16.72000 119.79993 129.00000 0.00775
1374 16.73000 121.66448 109.00000 0.00917
1375 16.74000 123.87220 138.00000 0.00725
1376 16.75000 126.49670 124.00000 0.00806
1377 16.76000 129.61372 129.00000 0.00775
1378 16.77000 133.29078 108.00000 0.00926
1379 16.78000 137.57665 116.00000 0.00862
1380 16.79000 142.49758 128.00000 0.00781
1381 16.80000 148.06351 141.00000 0.00709
1382 16.81000 154.27960 131.00000 0.00763
1383 16.82000 161.16225 151.00000 0.00662
1384 16.83000 168.70355 157.00000 0.00637
1385 16.84000 176.95379 161.00000 0.00621
1386 16.85000 185.96370 176.00000 0.00568
1387 16.86000 195.80377 177.00000 0.00565
1388 16.87000 206.56743 194.00000 0.00515
1389 16.88000 218.37523 204.00000 0.00490
1390 16.89000 231.37964 206.00000 0.00485
1391 16.90000 245.76935 223.00000 0.00448
1392 16.91000 261.76980 236.00000 0.00424
1393 16.92000 279.63499 245.00000 0.00408
1394 16.93000 299.62293 306.00000 0.00327
1395 16.94000 321.94614 329.00000 0.00304
1396 16.95000 346.68949 382.00000 0.00262
1397 16.96000 373.68985 396.00000 0.00253
1398 16.97000 402.37405 449.00000 0.00223
1399 16.98000 431.54953 453.00000 0.00221
1400 16.99000 459.14182 461.00000 0.00217
1401 17.00000 481.91439 423.00000 0.00236
1402 17.01000 495.38956 432.00000 0.00231
1403 17.02000 494.57449 464.00000 0.00216
1404 17.03000 476.17177 468.00000 0.00214
1405 17.04000 441.41797 453.00000 0.00221
1406 17.05000 396.44853 401.00000 0.00249
1407 17.06000 348.99546 364.00000 0.00275
1408 17.07000 304.83743 299.00000 0.00334
1409 17.08000 266.81801 248.00000 0.00403
1410 17.09000 235.64134 238.00000 0.00420
1411 17.10000 210.87886 218.00000 0.00459
1412 17.11000 191.62252 175.00000 0.00571
1413 17.12000 176.83286 161.00000 0.00621
1414 17.13000 165.51801 139.00000 0.00719
1415 17.14000 156.82212 135.00000 0.00741
1416 17.15000 150.05868 132.00000 0.00758
1417 17.16000 144.70777 118.00000 0.00847
1418 17.17000 140.39257 132.00000 0.00758
1419 17.18000 136.84775 121.00000 0.00826
1420 17.19000 133.88873 132.00000 0.00758
1421 17.20000 131.38638 125.00000 0.00800
1422 17.21000 129.24851 141.00000 0.00709
1423 17.22000 127.40732 117.00000 0.00855
1424 17.23000 125.81141 116.00000 0.00862
1425 17.24000 124.42069 121.00000 0.00826
1426 17.25000 123.20324 112.00000 0.00893
1427 17.26000 122.13322 111.00000 0.00901
1428 17.27000 121.18946 100.00000 0.01000
1429 17.28000 120.35447 119.00000 0.00840
1430 17.29000 119.61371 112.00000 0.00893
1431 17.30000 118.95496 109.00000 0.00917
1432 17.31000 118.36795 123.00000 0.00813
1433 17.32000 117.84396 94.00000 0.01064
1434 17.33000 117.37557 99.00000 0.01010
1435 17.34000 116.95642 92.00000 0.01087
1436 17.35000 116.58105 97.00000 0.01031
1437 17.36000 116.24474 111.00000 0.00901
1438 17.37000 115.94340 122.00000 0.00820
1439 17.38000 115.67347 117.00000 0.00855
1440 17.39000 115.43184 129.00000 0.00775
1441 17.40000 115.21578 130.00000 0.00769
1442 17.41000 115.02290 111.00000 0.00901
1443 17.42000 114.85108 110.00000 0.00909
1444 17.43000 114.69845 117.00000 0.00855
1445 17.44000 114.56336 120.00000 0.00833
1446 17.45000 114.44433 96.00000 0.01042
1447 17.46000 114.34004 106.00000 0.00943
1448 17.47000 114.24933 111.00000 0.00901
1449 17.48000 114.17113 122.00000 0.00820
1450 17.49000 114.10451 125.00000 0.00800
1451 17.50000 114.04861 121.00000 0.00826
1452 17.51000 114.00268 117.00000 0.00855
1453 17.52000 113.96603 108.00000 0.00926
1454 17.53000 113.93803 137.00000 0.00730
1455 17.54000 113.91812 103.00000 0.00971
1456 17.55000 113.90579 117.00000 0.00855
1457 17.56000 113.90059 117.00000 0.00855
1458 17.57000 113.90209 103.00000 0.00971
1459 17.58000 113.90991 112.00000 0.00893
1460 17.59000 113.92371 126.00000 0.00794
1461 17.60000 113.94317 123.00000 0.00813
1462 17.61000 113.96802 111.00000 0.00901
1463 17.62000 113.99799 121.00000 0.00826
1464 17.63000 114.03284 116.00000 0.00862
1465 17.64000 114.07238 125.00000 0.00800
1466 17.65000 114.11640 121.00000 0.00826
1467 17.66000 114.16474 130.00000 0.00769
1468 17.67000 114.21724 140.00000 0.00714
1469 17.68000 114.27375 110.00000 0.00909
1470 17.69000 114.33416 104.00000 0.00962
1471 17.70000 114.39835 112.00000 0.00893
1472 17.71000 114.46623 118.00000 0.00847
1473 17.72000 114.53771 111.00000 0.00901
1474 17.73000 114.61272 124.00000 0.00806
1475 17.74000 114.69121 123.00000 0.00813
1476 17.75000 114.77311 117.00000 0.00855
1477 17.76000 114.85840 106.00000 0.00943
1478 17.77000 114.94704 123.00000 0.00813
1479 17.78000 115.03901 118.00000 0.00847
1480 17.79000 115.13432 104.00000 0.00962
1481 17.80000 115.23295 119.00000 0.00840
1482 17.81000 115.33493 117.00000 0.00855
1483 17.82000 115.44028 101.00000 0.00990
1484 17.83000 115.54903 114.00000 0.00877
1485 17.84000 115.66123 113.00000 0.00885
1486 17.85000 115.77693 109.00000 0.00917
1487 17.86000 115.89620 118.00000 0.00847
1488 17.87000 116.01912 125.00000 0.00800
1489 17.88000 116.14578 113.00000 0.00885
1490 17.89000 116.27630 137.00000 0.00730
1491 17.90000 116.41079 115.00000 0.00870
1492 17.91000 116.54939 120.00000 0.00833
1493 17.92000 116.69225 90.00000 0.01111
1494 17.93000 116.83955 100.00000 0.01000
1495 17.94000 116.99149 107.00000 0.00935
1496 17.95000 117.14826 109.00000 0.00917
1497 17.96000 117.31012 121.00000 0.00826
1498 17.97000 117.47732 127.00000 0.00787
1499 17.98000 117.65017 102.00000 0.00980
1500 17.99000 117.82898 119.00000 0.00840
1501 18.00000 118.01412 103.00000 0.00971
1502 18.01000 118.20598 124.00000 0.00806
1503 18.02000 118.40503 106.00000 0.00943
1504 18.03000 118.61174 125.00000 0.00800
1505 18.04000 118.82668 127.00000 0.00787
1506 18.05000 119.05046 131.00000 0.00763
1507 18.06000 119.28378 134.00000 0.00746
1508 18.07000 119.52741 124.00000 0.00806
1509 18.08000 119.78221 122.00000 0.00820
1510 18.09000 120.04918 112.00000 0.00893
1511 18.10000 120.32942 129.00000 0.00775
1512 18.11000 120.62418 117.00000 0.00855
1513 18.12000 120.93489 124.00000 0.00806
1514 18.13000 121.26319 106.00000 0.00943
1515 18.14000 121.61093 137.00000 0.00730
1516 18.15000 121.98028 120.00000 0.00833
1517 18.16000 122.37373 105.00000 0.00952
1518 18.17000 122.79417 132.00000 0.00758
1519 18.18000 123.24500 124.00000 0.00806
1520 18.19000 123.73026 129.00000 0.00775
1521 18.20000 124.25475 123.00000 0.00813
1522 18.21000 124.82431 123.00000 0.00813
1523 18.22000 125.44611 135.00000 0.00741
1524 18.23000 126.12907 134.00000 0.00746
1525 18.24000 126.88448 131.00000 0.00763
1526 18.25000 127.72670 104.00000 0.00962
1527 18.26000 128.67414 128.00000 0.00781
1528 18.27000 129.75031 130.00000 0.00769
1529 18.28000 130.98500 129.00000 0.00775
1530 18.29000 132.41538 129.00000 0.00775
1531 18.30000 134.08662 142.00000 0.00704
1532 18.31000 136.05144 141.00000 0.00709
1533 18.32000 138.36733 136.00000 0.00735
1534 18.33000 141.09066 158.00000 0.00633
1535 18.34000 144.26874 154.00000 0.00649
1536 18.35000 147.93424 140.00000 0.00714
1537 18.36000 152.10611 153.00000 0.00654
1538 18.37000 156.79644 141.00000 0.00709
1539 18.38000 162.01858 153.00000 0.00654
1540 18.39000 167.79343 159.00000 0.00629
1541 18.40000 174.15349 170.00000 0.00588
1542 18.41000 181.14584 169.00000 0.00592
1543 18.42000 188.83450 180.00000 0.00556
1544 18.43000 197.30280 185.00000 0.00541
1545 18.44000 206.65484 172.00000 0.00581
1546 18.45000 217.01499 202.00000 0.00495
1547 18.46000 228.52270 205.00000 0.00488
1548 18.47000 241.31919 246.00000 0.00407
1549 18.48000 255.52183 245.00000 0.00408
1550 18.49000 271.18171 260.00000 0.00385
1551 18.50000 288.22015 287.00000 0.00348
1552 18.51000 306.33930 305.00000 0.00328
1553 18.52000 324.89538 307.00000 0.00326
1554 18.53000 342.73469 322.00000 0.00311
1555 18.54000 358.00132 342.00000 0.00292
1556 18.55000 368.03836 386.00000 0.00259
1557 18.56000 369.73325 338.00000 0.00296
1558 18.57000 360.75427 340.00000 0.00294
1559 18.58000 341.30838 324.00000 0.00309
1560 18.59000 314.71698 302.00000 0.00331
1561 18.60000 285.72690 291.00000 0.00344
1562 18.61000 258.19705 240.00000 0.00417
1563 18.62000 234.18416 217.00000 0.00461
1564 18.63000 214.30211 202.00000 0.00495
1565 18.64000 198.37138 215.00000 0.00465
1566 18.65000 185.87707 198.00000 0.00505
1567 18.66000 176.21187 183.00000 0.00546
1568 18.67000 168.79187 176.00000 0.00568
1569 18.68000 163.10859 178.00000 0.00562
1570 18.69000 158.74790 150.00000 0.00667
1571 18.70000 155.38994 152.00000 0.00658
1572 18.71000 152.79813 154.00000 0.00649
1573 18.72000 150.80363 158.00000 0.00633
1574 18.73000 149.28938 141.00000 0.00709
1575 18.74000 148.17655 162.00000 0.00617
1576 18.75000 147.41440 128.00000 0.00781
1577 18.76000 146.97324 140.00000 0.00714
1578 18.77000 146.84028 148.00000 0.00676
1579 18.78000 147.01709 129.00000 0.00775
1580 18.79000 147.51815 141.00000 0.00709
1581 18.80000 148.36944 161.00000 0.00621
1582 18.81000 149.60586 159.00000 0.00629
1583 18.82000 151.26638 145.00000 0.00690
1584 18.83000 153.38698 136.00000 0.00735
1585 18.84000 155.99415 143.00000 0.00699
1586 18.85000 159.10304 143.00000 0.00699
1587 18.86000 162.72168 142.00000 0.00704
1588 18.87000 166.85795 185.00000 0.00541
1589 18.88000 171.52576 157.00000 0.00637
1590 18.89000 176.74937 171.00000 0.00585
1591 18.90000 182.56614 170.00000 0.00588
1592 18.91000 189.02873 163.00000 0.00613
1593 18.92000 196.20669 181.00000 0.00552
1594 18.93000 204.18707 201.00000 0.00498
1595 18.94000 213.07270 187.00000 0.00535
1596 18.95000 222.97596 220.00000 0.00455
1597 18.96000 234.00510 221.00000 0.00452
1598 18.97000 246.23963 254.00000 0.00394
1599 18.98000 259.69114 263.00000 0.00380
1600 18.99000 274.24549 270.00000 0.00370
1601 19.00000 289.58037 276.00000 0.00362
1602 19.01000 305.04995 292.00000 0.00342
1603 19.02000 319.53176 276.00000 0.00362
1604 19.03000 331.26857 290.00000 0.00345
1605 19.04000 337.85863 310.00000 0.00323
1606 19.05000 336.73958 320.00000 0.00312
1607 19.06000 326.43147 318.00000 0.00314
1608 19.07000 307.89456 315.00000 0.00317
1609 19.08000 284.45428 249.00000 0.00402
1610 19.09000 260.02706 231.00000 0.00433
1611 19.10000 237.43277 248.00000 0.00403
1612 19.11000 218.00057 208.00000 0.00481
1613 19.12000 202.00571 189.00000 0.00529
1614 19.13000 189.18742 194.00000 0.00515
1615 19.14000 179.07885 209.00000 0.00478
1616 19.15000 171.17367 178.00000 0.00562
1617 19.16000 165.00235 167.00000 0.00599
1618 19.17000 160.16400 177.00000 0.00565
1619 19.18000 156.33543 159.00000 0.00629
1620 19.19000 153.26731 151.00000 0.00662
1621 19.20000 150.77372 126.00000 0.00794
1622 19.21000 148.71900 147.00000 0.00680
1623 19.22000 147.00506 156.00000 0.00641
1624 19.23000 145.56066 154.00000 0.00649
1625 19.24000 144.33304 154.00000 0.00649
1626 19.25000 143.28073 135.00000 0.00741
1627 19.26000 142.37989 139.00000 0.00719
1628 19.27000 141.60703 151.00000 0.00662
1629 19.28000 140.93966 180.00000 0.00556
1630 19.29000 140.36238 150.00000 0.00667
1631 19.30000 139.86257 136.00000 0.00735
1632 19.31000 139.42976 145.00000 0.00690
1633 19.32000 139.05519 152.00000 0.00658
1634 19.33000 138.73153 156.00000 0.00641
1635 19.34000 138.45259 142.00000 0.00704
1636 19.35000 138.21312 182.00000 0.00549
1637 19.36000 138.00864 164.00000 0.00610
1638 19.37000 137.83533 168.00000 0.00595
1639 19.38000 137.68991 164.00000 0.00610
1640 19.39000 137.56956 133.00000 0.00752
1641 19.40000 137.47188 165.00000 0.00606
1642 19.41000 137.39482 162.00000 0.00617
1643 19.42000 137.33669 163.00000 0.00613
1644 19.43000 137.29620 154.00000 0.00649
1645 19.44000 137.27280 176.00000 0.00568
1646 19.45000 137.26929 192.00000 0.00521
1647 19.46000 137.27951 149.00000 0.00671
1648 19.47000 137.28699 153.00000 0.00654
1649 19.48000 137.30506 154.00000 0.00649
1650 19.49000 137.33291 160.00000 0.00625
1651 19.50000 137.36980 131.00000 0.00763
1652 19.51000 137.41508 153.00000 0.00654
1653 19.52000 137.46815 152.00000 0.00658
1654 19.53000 137.52849 149.00000 0.00671
1655 19.54000 137.59561 160.00000 0.00625
1656 19.55000 137.66908 130.00000 0.00769
1657 19.56000 137.74851 157.00000 0.00637
1658 19.57000 137.83353 153.00000 0.00654
1659 19.58000 137.92382 139.00000 0.00719
1660 19.59000 138.01909 151.00000 0.00662
1661 19.60000 138.11918 149.00000 0.00671
1662 19.61000 138.22393 130.00000 0.00769
1663 19.62000 138.33316 140.00000 0.00714
1664 19.63000 138.44667 141.00000 0.00709
1665 19.64000 138.56432 177.00000 0.00565
1666 19.65000 138.68597 162.00000 0.00617
1667 19.66000 138.81151 176.00000 0.00568
1668 19.67000 138.94086 170.00000 0.00588
1669 19.68000 139.07397 159.00000 0.00629
1670 19.69000 139.21080 150.00000 0.00667
1671 19.70000 139.35141 159.00000 0.00629
1672 19.71000 139.49588 143.00000 0.00699
1673 19.72000 139.64444 167.00000 0.00599
1674 19.73000 139.79755 148.00000 0.00676
1675 19.74000 139.95623 151.00000 0.00662
1676 19.75000 140.12350 152.00000 0.00658
1677 19.76000 140.31948 155.00000 0.00645
1678 19.77000 140.47511 145.00000 0.00690
1679 19.78000 140.63317 175.00000 0.00571
1680 19.79000 140.79361 156.00000 0.00641
1681 19.80000 140.95640 152.00000 0.00658
1682 19.81000 141.12151 150.00000 0.00667
1683 19.82000 141.28890 158.00000 0.00633
1684 19.83000 141.45854 161.00000 0.00621
1685 19.84000 141.63043 168.00000 0.00595
1686 19.85000 141.80453 159.00000 0.00629
1687 19.86000 141.98085 144.00000 0.00694
1688 19.87000 142.15937 159.00000 0.00629
1689 19.88000 142.34009 167.00000 0.00599
1690 19.89000 142.52300 157.00000 0.00637
1691 19.90000 142.70812 170.00000 0.00588
1692 19.91000 142.89545 158.00000 0.00633
1693 19.92000 143.08500 159.00000 0.00629
1694 19.93000 143.27678 170.00000 0.00588
1695 19.94000 143.47083 170.00000 0.00588
1696 19.95000 143.66716 185.00000 0.00541
1697 19.96000 143.86579 157.00000 0.00637
1698 19.97000 144.06677 190.00000 0.00526
1699 19.98000 144.27013 167.00000 0.00599
1700 19.99000 144.47590 164.00000 0.00610
1701 20.00000 144.68414 159.00000 0.00629
1702 20.01000 144.89490 146.00000 0.00685
1703 20.02000 145.10822 174.00000 0.00575
1704 20.03000 145.32419 162.00000 0.00617
1705 20.04000 145.54285 162.00000 0.00617
1706 20.05000 145.76428 173.00000 0.00578
1707 20.06000 145.98857 163.00000 0.00613
1708 20.07000 146.21579 182.00000 0.00549
1709 20.08000 146.44605 150.00000 0.00667
1710 20.09000 146.67944 149.00000 0.00671
1711 20.10000 146.91607 147.00000 0.00680
1712 20.11000 147.15607 158.00000 0.00633
1713 20.12000 147.39954 176.00000 0.00568
1714 20.13000 147.64665 172.00000 0.00581
1715 20.14000 147.89752 156.00000 0.00641
1716 20.15000 148.15233 157.00000 0.00637
1717 20.16000 148.41125 167.00000 0.00599
1718 20.17000 148.67445 158.00000 0.00633
1719 20.18000 148.94215 154.00000 0.00649
1720 20.19000 149.21457 180.00000 0.00556
1721 20.20000 149.49193 163.00000 0.00613
1722 20.21000 149.77450 162.00000 0.00617
1723 20.22000 150.06255 152.00000 0.00658
1724 20.23000 150.35638 166.00000 0.00602
1725 20.24000 150.65632 143.00000 0.00699
1726 20.25000 150.96272 155.00000 0.00645
1727 20.26000 151.27596 167.00000 0.00599
1728 20.27000 151.59647 174.00000 0.00575
1729 20.28000 151.92471 172.00000 0.00581
1730 20.29000 152.26116 178.00000 0.00562
1731 20.30000 152.60638 166.00000 0.00602
1732 20.31000 152.96097 182.00000 0.00549
1733 20.32000 153.32558 160.00000 0.00625
1734 20.33000 153.70093 177.00000 0.00565
1735 20.34000 154.08781 155.00000 0.00645
1736 20.35000 154.48709 175.00000 0.00571
1737 20.36000 154.89975 160.00000 0.00625
1738 20.37000 155.32684 194.00000 0.00515
1739 20.38000 155.76956 149.00000 0.00671
1740 20.39000 156.22921 178.00000 0.00562
1741 20.40000 156.70727 169.00000 0.00592
1742 20.41000 157.20537 166.00000 0.00602
1743 20.42000 157.72536 173.00000 0.00578
1744 20.43000 158.26929 179.00000 0.00559
1745 20.44000 158.83949 173.00000 0.00578
1746 20.45000 159.43858 164.00000 0.00610
1747 20.46000 160.06954 154.00000 0.00649
1748 20.47000 160.73577 180.00000 0.00556
1749 20.48000 161.44112 179.00000 0.00559
1750 20.49000 162.19006 159.00000 0.00629
1751 20.50000 162.98768 165.00000 0.00606
1752 20.51000 163.83991 158.00000 0.00633
1753 20.52000 164.75366 163.00000 0.00613
1754 20.53000 165.73699 184.00000 0.00543
1755 20.54000 166.79943 151.00000 0.00662
1756 20.55000 167.95232 177.00000 0.00565
1757 20.56000 169.20928 186.00000 0.00538
1758 20.57000 170.58683 166.00000 0.00602
1759 20.58000 172.10521 151.00000 0.00662
1760 20.59000 173.78953 169.00000 0.00592
1761 20.60000 175.67114 167.00000 0.00599
1762 20.61000 177.78940 194.00000 0.00515
1763 20.62000 180.19389 177.00000 0.00565
1764 20.63000 182.94682 166.00000 0.00602
1765 20.64000 186.12576 183.00000 0.00546
1766 20.65000 189.82584 162.00000 0.00617
1767 20.66000 194.16060 176.00000 0.00568
1768 20.67000 199.25920 211.00000 0.00474
1769 20.68000 205.25782 194.00000 0.00515
1770 20.69000 212.28503 200.00000 0.00500
1771 20.70000 220.44684 199.00000 0.00503
1772 20.71000 229.82127 229.00000 0.00437
1773 20.72000 240.46709 226.00000 0.00442
1774 20.73000 252.44083 237.00000 0.00422
1775 20.74000 265.81321 248.00000 0.00403
1776 20.75000 280.68214 245.00000 0.00408
1777 20.76000 297.16768 255.00000 0.00392
1778 20.77000 315.43088 254.00000 0.00394
1779 20.78000 335.65787 306.00000 0.00327
1780 20.79000 358.04582 297.00000 0.00337
1781 20.80000 382.77621 382.00000 0.00262
1782 20.81000 409.96705 375.00000 0.00267
1783 20.82000 439.59714 397.00000 0.00252
1784 20.83000 471.38992 436.00000 0.00229
1785 20.84000 504.63870 438.00000 0.00228
1786 20.85000 537.95014 484.00000 0.00207
1787 20.86000 568.90289 508.00000 0.00197
1788 20.87000 593.72133 511.00000 0.00196
1789 20.88000 607.33781 533.00000 0.00188
1790 20.89000 604.55416 516.00000 0.00194
1791 20.90000 582.65916 481.00000 0.00208
1792 20.91000 543.97185 499.00000 0.00200
1793 20.92000 495.39854 494.00000 0.00202
1794 20.93000 444.85690 451.00000 0.00222
1795 20.94000 398.02355 367.00000 0.00272
1796 20.95000 357.57815 351.00000 0.00285
1797 20.96000 324.06530 308.00000 0.00325
1798 20.97000 296.94498 251.00000 0.00398
1799 20.98000 275.27619 257.00000 0.00389
1800 20.99000 258.05920 254.00000 0.00394
1801 21.00000 244.38135 220.00000 0.00455
1802 21.01000 233.46873 190.00000 0.00526
1803 21.02000 224.69480 208.00000 0.00481
1804 21.03000 217.56914 223.00000 0.00448
1805 21.04000 211.71730 204.00000 0.00490
1806 21.05000 206.85804 194.00000 0.00515
1807 21.06000 202.78171 217.00000 0.00461
1808 21.07000 199.33169 209.00000 0.00478
1809 21.08000 196.38993 189.00000 0.00529
1810 21.09000 193.86610 182.00000 0.00549
1811 21.10000 191.68987 200.00000 0.00500
1812 21.11000 189.80560 221.00000 0.00452
1813 21.12000 188.16857 174.00000 0.00575
1814 21.13000 186.74244 212.00000 0.00472
1815 21.14000 185.49734 213.00000 0.00469
1816 21.15000 184.40851 213.00000 0.00469
1817 21.16000 183.45532 176.00000 0.00568
1818 21.17000 182.62043 206.00000 0.00485
1819 21.18000 181.88921 214.00000 0.00467
1820 21.19000 181.24924 205.00000 0.00488
1821 21.20000 180.68993 212.00000 0.00472
1822 21.21000 180.20220 203.00000 0.00493
1823 21.22000 179.77824 219.00000 0.00457
1824 21.23000 179.41132 199.00000 0.00503
1825 21.24000 179.09559 220.00000 0.00455
1826 21.25000 178.82595 191.00000 0.00524
1827 21.26000 178.59797 209.00000 0.00478
1828 21.27000 178.40776 196.00000 0.00510
1829 21.28000 178.25189 202.00000 0.00495
1830 21.29000 178.12738 215.00000 0.00465
1831 21.30000 178.03156 210.00000 0.00476
1832 21.31000 177.96208 180.00000 0.00556
1833 21.32000 177.91688 196.00000 0.00510
1834 21.33000 177.89413 172.00000 0.00581
1835 21.34000 177.89225 171.00000 0.00585
1836 21.35000 177.90980 208.00000 0.00481
1837 21.36000 177.94550 215.00000 0.00465
1838 21.37000 177.99820 205.00000 0.00488
1839 21.38000 178.06689 191.00000 0.00524
1840 21.39000 178.15069 168.00000 0.00595
1841 21.40000 178.24883 169.00000 0.00592
1842 21.41000 178.36062 187.00000 0.00535
1843 21.42000 178.48549 200.00000 0.00500
1844 21.43000 178.62298 202.00000 0.00495
1845 21.44000 178.77276 207.00000 0.00483
1846 21.45000 178.93467 185.00000 0.00541
1847 21.46000 179.10897 181.00000 0.00552
1848 21.47000 179.29814 184.00000 0.00543
1849 21.48000 179.49876 185.00000 0.00541
1850 21.49000 179.69986 182.00000 0.00549
1851 21.50000 179.91105 194.00000 0.00515
1852 21.51000 180.13224 186.00000 0.00538
1853 21.52000 180.36335 202.00000 0.00495
1854 21.53000 180.60439 169.00000 0.00592
1855 21.54000 180.85539 183.00000 0.00546
1856 21.55000 181.11647 168.00000 0.00595
1857 21.56000 181.38776 177.00000 0.00565
1858 21.57000 181.66946 198.00000 0.00505
1859 21.58000 181.96183 191.00000 0.00524
1860 21.59000 182.26518 174.00000 0.00575
1861 21.60000 182.57986 211.00000 0.00474
1862 21.61000 182.90633 186.00000 0.00538
1863 21.62000 183.24506 186.00000 0.00538
1864 21.63000 183.59666 197.00000 0.00508
1865 21.64000 183.96177 191.00000 0.00524
1866 21.65000 184.34114 188.00000 0.00532
1867 21.66000 184.73564 187.00000 0.00535
1868 21.67000 185.14621 198.00000 0.00505
1869 21.68000 185.57396 190.00000 0.00526
1870 21.69000 186.02010 222.00000 0.00450
1871 21.70000 186.48603 201.00000 0.00498
1872 21.71000 186.97334 188.00000 0.00532
1873 21.72000 187.48366 191.00000 0.00524
1874 21.73000 188.01900 204.00000 0.00490
1875 21.74000 188.58154 194.00000 0.00515
1876 21.75000 189.17360 210.00000 0.00476
1877 21.76000 189.79730 184.00000 0.00543
1878 21.77000 190.45409 192.00000 0.00521
1879 21.78000 191.15589 193.00000 0.00518
1880 21.79000 191.90879 200.00000 0.00500
1881 21.80000 192.71253 215.00000 0.00465
1882 21.81000 193.57331 188.00000 0.00532
1883 21.82000 194.49837 189.00000 0.00529
1884 21.83000 195.49622 214.00000 0.00467
1885 21.84000 196.57697 203.00000 0.00493
1886 21.85000 197.75263 194.00000 0.00515
1887 21.86000 199.03768 190.00000 0.00526
1888 21.87000 200.44967 222.00000 0.00450
1889 21.88000 202.01011 203.00000 0.00493
1890 21.89000 203.74552 209.00000 0.00478
1891 21.90000 205.68885 196.00000 0.00510
1892 21.91000 207.88120 200.00000 0.00500
1893 21.92000 210.37396 205.00000 0.00488
1894 21.93000 213.23116 206.00000 0.00485
1895 21.94000 216.53198 209.00000 0.00478
1896 21.95000 220.37270 226.00000 0.00442
1897 21.96000 224.86676 239.00000 0.00418
1898 21.97000 230.14111 250.00000 0.00400
1899 21.98000 236.32676 266.00000 0.00376
1900 21.99000 243.54501 250.00000 0.00400
1901 22.00000 251.89577 254.00000 0.00394
1902 22.01000 261.45612 265.00000 0.00377
1903 22.02000 272.29053 237.00000 0.00422
1904 22.03000 284.46600 291.00000 0.00344
1905 22.04000 298.06443 279.00000 0.00358
1906 22.05000 313.18885 295.00000 0.00339
1907 22.06000 329.96294 319.00000 0.00313
1908 22.07000 348.52321 383.00000 0.00261
1909 22.08000 369.00178 353.00000 0.00283
1910 22.09000 391.49585 357.00000 0.00280
1911 22.10000 416.01757 414.00000 0.00242
1912 22.11000 442.41436 494.00000 0.00202
1913 22.12000 470.24429 489.00000 0.00204
1914 22.13000 498.58686 532.00000 0.00188
1915 22.14000 525.77841 566.00000 0.00177
1916 22.15000 549.12041 522.00000 0.00192
1917 22.16000 564.77973 558.00000 0.00179
1918 22.17000 568.36930 578.00000 0.00173
1919 22.18000 556.67572 574.00000 0.00174
1920 22.19000 529.93608 512.00000 0.00195
1921 22.20000 492.54522 516.00000 0.00194
1922 22.21000 450.95987 498.00000 0.00201
1923 22.22000 410.70023 432.00000 0.00231
1924 22.23000 374.91986 367.00000 0.00272
1925 22.24000 344.69406 317.00000 0.00315
1926 22.25000 319.88214 293.00000 0.00341
1927 22.26000 299.82028 274.00000 0.00365
1928 22.27000 283.70818 271.00000 0.00369
1929 22.28000 270.78371 244.00000 0.00410
1930 22.29000 260.38722 233.00000 0.00429
1931 22.30000 251.97595 240.00000 0.00417
1932 22.31000 245.11733 215.00000 0.00465
1933 22.32000 239.47421 219.00000 0.00457
1934 22.33000 234.78774 215.00000 0.00465
1935 22.34000 230.86078 205.00000 0.00488
1936 22.35000 227.54338 213.00000 0.00469
1937 22.36000 224.72100 195.00000 0.00513
1938 22.37000 222.30522 212.00000 0.00472
1939 22.38000 220.22696 215.00000 0.00465
1940 22.39000 218.43152 227.00000 0.00441
1941 22.40000 216.87497 202.00000 0.00495
1942 22.41000 215.52167 215.00000 0.00465
1943 22.42000 214.34239 223.00000 0.00448
1944 22.43000 213.31295 196.00000 0.00510
1945 22.44000 212.41322 184.00000 0.00543
1946 22.45000 211.62631 219.00000 0.00457
1947 22.46000 210.93797 194.00000 0.00515
1948 22.47000 210.33615 215.00000 0.00465
1949 22.48000 209.81053 204.00000 0.00490
1950 22.49000 209.35231 196.00000 0.00510
1951 22.50000 208.95392 193.00000 0.00518
1952 22.51000 208.60886 197.00000 0.00508
1953 22.52000 208.31149 221.00000 0.00452
1954 22.53000 208.05688 200.00000 0.00500
1955 22.54000 207.84071 207.00000 0.00483
1956 22.55000 207.65924 226.00000 0.00442
1957 22.56000 207.50914 221.00000 0.00452
1958 22.57000 207.38751 229.00000 0.00437
1959 22.58000 207.29179 214.00000 0.00467
1960 22.59000 207.21973 192.00000 0.00521
1961 22.60000 207.16937 205.00000 0.00488
1962 22.61000 207.13902 196.00000 0.00510
1963 22.62000 207.12736 184.00000 0.00543
1964 22.63000 207.13367 205.00000 0.00488
1965 22.64000 207.16201 219.00000 0.00457
1966 22.65000 207.19552 181.00000 0.00552
1967 22.66000 207.23893 175.00000 0.00571
1968 22.67000 207.29415 191.00000 0.00524
1969 22.68000 207.36030 211.00000 0.00474
1970 22.69000 207.43658 197.00000 0.00508
1971 22.70000 207.52227 189.00000 0.00529
1972 22.71000 207.61669 184.00000 0.00543
1973 22.72000 207.71923 207.00000 0.00483
1974 22.73000 207.82935 181.00000 0.00552
1975 22.74000 207.94654 207.00000 0.00483
1976 22.75000 208.07033 173.00000 0.00578
1977 22.76000 208.20030 204.00000 0.00490
1978 22.77000 208.33604 212.00000 0.00472
1979 22.78000 208.47720 217.00000 0.00461
1980 22.79000 208.62344 216.00000 0.00463
1981 22.80000 208.77445 195.00000 0.00513
1982 22.81000 208.92995 168.00000 0.00595
1983 22.82000 209.08968 193.00000 0.00518
1984 22.83000 209.25338 218.00000 0.00459
1985 22.84000 209.42082 196.00000 0.00510
1986 22.85000 209.59181 219.00000 0.00457
1987 22.86000 209.76614 229.00000 0.00437
1988 22.87000 209.94363 233.00000 0.00429
1989 22.88000 210.12410 220.00000 0.00455
1990 22.89000 210.30740 209.00000 0.00478
1991 22.90000 210.49338 203.00000 0.00493
1992 22.91000 210.68191 196.00000 0.00510
1993 22.92000 210.87284 201.00000 0.00498
1994 22.93000 211.06607 238.00000 0.00420
1995 22.94000 211.26147 197.00000 0.00508
1996 22.95000 211.45894 206.00000 0.00485
1997 22.96000 211.65838 192.00000 0.00521
1998 22.97000 211.85970 213.00000 0.00469
1999 22.98000 212.06280 226.00000 0.00442
2000 22.99000 212.26761 218.00000 0.00459
2001 23.00000 212.47405 202.00000 0.00495
2002 23.01000 212.68204 183.00000 0.00546
2003 23.02000 212.89152 210.00000 0.00476
2004 23.03000 213.10242 203.00000 0.00493
2005 23.04000 213.31468 203.00000 0.00493
2006 23.05000 213.52824 184.00000 0.00543
2007 23.06000 213.74305 218.00000 0.00459
2008 23.07000 213.95905 226.00000 0.00442
2009 23.08000 214.17621 215.00000 0.00465
2010 23.09000 214.39447 222.00000 0.00450
2011 23.10000 214.61380 233.00000 0.00429
2012 23.11000 214.83414 223.00000 0.00448
2013 23.12000 215.05547 235.00000 0.00426
2014 23.13000 215.27775 218.00000 0.00459
2015 23.14000 215.50095 215.00000 0.00465
2016 23.15000 215.72503 201.00000 0.00498
2017 23.16000 215.94996 227.00000 0.00441
2018 23.17000 216.17573 221.00000 0.00452
2019 23.18000 216.40229 239.00000 0.00418
2020 23.19000 216.62972 199.00000 0.00503
2021 23.20000 216.85809 188.00000 0.00532
2022 23.21000 217.08743 233.00000 0.00429
2023 23.22000 217.31774 212.00000 0.00472
2024 23.23000 217.54904 228.00000 0.00439
2025 23.24000 217.78137 193.00000 0.00518
2026 23.25000 218.01476 181.00000 0.00552
2027 23.26000 218.24930 210.00000 0.00476
2028 23.27000 218.48512 209.00000 0.00478
2029 23.28000 218.72242 245.00000 0.00408
2030 23.29000 218.96159 206.00000 0.00485
2031 23.30000 219.20341 194.00000 0.00515
2032 23.31000 219.45032 205.00000 0.00488
2033 23.32000 219.71340 218.00000 0.00459
2034 23.33000 219.94984 212.00000 0.00472
2035 23.34000 220.18683 199.00000 0.00503
2036 23.35000 220.42435 199.00000 0.00503
2037 23.36000 220.66241 193.00000 0.00518
2038 23.37000 220.90099 218.00000 0.00459
2039 23.38000 221.14009 218.00000 0.00459
2040 23.39000 221.37970 218.00000 0.00459
2041 23.40000 221.61982 214.00000 0.00467
2042 23.41000 221.86042 218.00000 0.00459
2043 23.42000 222.10152 222.00000 0.00450
2044 23.43000 222.34310 231.00000 0.00433
2045 23.44000 222.58510 201.00000 0.00498
2046 23.45000 222.82742 226.00000 0.00442
2047 23.46000 223.06986 195.00000 0.00513
2048 23.47000 223.31174 205.00000 0.00488
2049 23.48000 223.54882 217.00000 0.00461
2050 23.49000 223.79644 237.00000 0.00422
2051 23.50000 224.04499 219.00000 0.00457
2052 23.51000 224.29457 227.00000 0.00441
2053 23.52000 224.54533 249.00000 0.00402
2054 23.53000 224.79765 224.00000 0.00446
2055 23.54000 225.05400 202.00000 0.00495
2056 23.55000 225.30684 209.00000 0.00478
2057 23.56000 225.56022 222.00000 0.00450
2058 23.57000 225.81468 237.00000 0.00422
2059 23.58000 226.07028 199.00000 0.00503
2060 23.59000 226.32709 204.00000 0.00490
2061 23.60000 226.58519 240.00000 0.00417
2062 23.61000 226.84465 219.00000 0.00457
2063 23.62000 227.10557 214.00000 0.00467
2064 23.63000 227.36805 222.00000 0.00450
2065 23.64000 227.63220 260.00000 0.00385
2066 23.65000 227.89814 225.00000 0.00444
2067 23.66000 228.16601 210.00000 0.00476
2068 23.67000 228.43597 228.00000 0.00439
2069 23.68000 228.70817 210.00000 0.00476
2070 23.69000 228.98280 237.00000 0.00422
2071 23.70000 229.26008 244.00000 0.00410
2072 23.71000 229.54024 229.00000 0.00437
2073 23.72000 229.82354 229.00000 0.00437
2074 23.73000 230.11028 220.00000 0.00455
2075 23.74000 230.40078 228.00000 0.00439
2076 23.75000 230.69543 215.00000 0.00465
2077 23.76000 230.99464 226.00000 0.00442
2078 23.77000 231.29890 208.00000 0.00481
2079 23.78000 231.60877 219.00000 0.00457
2080 23.79000 231.92486 247.00000 0.00405
2081 23.80000 232.24790 225.00000 0.00444
2082 23.81000 232.57872 225.00000 0.00444
2083 23.82000 232.91828 216.00000 0.00463
2084 23.83000 233.26771 253.00000 0.00395
2085 23.84000 233.62836 221.00000 0.00452
2086 23.85000 234.00177 216.00000 0.00463
2087 23.86000 234.38980 232.00000 0.00431
2088 23.87000 234.79468 288.00000 0.00347
2089 23.88000 235.21906 241.00000 0.00415
2090 23.89000 235.66618 227.00000 0.00441
2091 23.90000 236.13997 230.00000 0.00435
2092 23.91000 236.64525 249.00000 0.00402
2093 23.92000 237.18797 283.00000 0.00353
2094 23.93000 237.77550 241.00000 0.00415
2095 23.94000 238.41692 241.00000 0.00415
2096 23.95000 239.12344 240.00000 0.00417
2097 23.96000 239.90868 243.00000 0.00412
2098 23.97000 240.78884 278.00000 0.00360
2099 23.98000 241.78238 245.00000 0.00408
2100 23.99000 242.90900 278.00000 0.00360
2101 24.00000 244.18796 239.00000 0.00418
2102 24.01000 245.63605 259.00000 0.00386
2103 24.02000 247.26550 226.00000 0.00442
2104 24.03000 249.09082 227.00000 0.00441
2105 24.04000 251.12657 267.00000 0.00375
2106 24.05000 253.37876 282.00000 0.00355
2107 24.06000 255.85910 304.00000 0.00329
2108 24.07000 258.57951 266.00000 0.00376
2109 24.08000 261.54986 244.00000 0.00410
2110 24.09000 264.77363 283.00000 0.00353
2111 24.10000 268.24066 325.00000 0.00308
2112 24.11000 271.91504 275.00000 0.00364
2113 24.12000 275.71627 269.00000 0.00372
2114 24.13000 279.49143 315.00000 0.00317
2115 24.14000 282.98101 344.00000 0.00291
2116 24.15000 285.79313 301.00000 0.00332
2117 24.16000 287.42632 323.00000 0.00310
2118 24.17000 287.39862 299.00000 0.00334
2119 24.18000 285.48757 298.00000 0.00336
2120 24.19000 281.93161 313.00000 0.00319
2121 24.20000 277.37307 275.00000 0.00364
2122 24.21000 272.55322 275.00000 0.00364
2123 24.22000 268.02803 301.00000 0.00332
2124 24.23000 264.08271 268.00000 0.00373
2125 24.24000 260.79367 270.00000 0.00370
2126 24.25000 258.12293 266.00000 0.00376
2127 24.26000 255.98694 263.00000 0.00380
2128 24.27000 254.29371 252.00000 0.00397
2129 24.28000 252.95901 260.00000 0.00385
2130 24.29000 251.91152 278.00000 0.00360
2131 24.30000 251.09327 264.00000 0.00379
2132 24.31000 250.45814 244.00000 0.00410
2133 24.32000 249.96984 249.00000 0.00402
2134 24.33000 249.60005 257.00000 0.00389
2135 24.34000 249.32668 246.00000 0.00407
2136 24.35000 249.13251 234.00000 0.00427
2137 24.36000 249.00404 232.00000 0.00431
2138 24.37000 248.93061 249.00000 0.00402
2139 24.38000 248.90381 265.00000 0.00377
2140 24.39000 248.91694 264.00000 0.00379
2141 24.40000 248.96479 222.00000 0.00450
2142 24.41000 249.04404 272.00000 0.00368
2143 24.42000 249.15145 246.00000 0.00407
2144 24.43000 249.27494 260.00000 0.00385
2145 24.44000 249.41866 257.00000 0.00389
2146 24.45000 249.58053 263.00000 0.00380
2147 24.46000 249.75880 271.00000 0.00369
2148 24.47000 249.95203 251.00000 0.00398
2149 24.48000 250.15902 247.00000 0.00405
2150 24.49000 250.37877 254.00000 0.00394
2151 24.50000 250.61046 249.00000 0.00402
2152 24.51000 250.85340 263.00000 0.00380
2153 24.52000 251.10706 259.00000 0.00386
2154 24.53000 251.37100 278.00000 0.00360
2155 24.54000 251.64487 238.00000 0.00420
2156 24.55000 251.92842 243.00000 0.00412
2157 24.56000 252.22148 254.00000 0.00394
2158 24.57000 252.52395 251.00000 0.00398
2159 24.58000 252.83579 257.00000 0.00389
2160 24.59000 253.15702 251.00000 0.00398
2161 24.60000 253.48772 278.00000 0.00360
2162 24.61000 253.82804 272.00000 0.00368
2163 24.62000 254.17815 267.00000 0.00375
2164 24.63000 254.53831 260.00000 0.00385
2165 24.64000 254.90881 252.00000 0.00397
2166 24.65000 255.29000 244.00000 0.00410
2167 24.66000 255.68229 267.00000 0.00375
2168 24.67000 256.08614 258.00000 0.00388
2169 24.68000 256.50208 269.00000 0.00372
2170 24.69000 256.93069 235.00000 0.00426
2171 24.70000 257.37263 233.00000 0.00429
2172 24.71000 257.82863 255.00000 0.00392
2173 24.72000 258.29949 258.00000 0.00388
2174 24.73000 258.78611 234.00000 0.00427
2175 24.74000 259.28946 242.00000 0.00413
2176 24.75000 259.81063 246.00000 0.00407
2177 24.76000 260.35082 245.00000 0.00408
2178 24.77000 260.91135 252.00000 0.00397
2179 24.78000 261.49369 254.00000 0.00394
2180 24.79000 262.09943 276.00000 0.00362
2181 24.80000 262.73038 250.00000 0.00400
2182 24.81000 263.38850 249.00000 0.00402
2183 24.82000 264.07600 255.00000 0.00392
2184 24.83000 264.79532 274.00000 0.00365
2185 24.84000 265.54918 254.00000 0.00394
2186 24.85000 266.34062 231.00000 0.00433
2187 24.86000 267.17305 275.00000 0.00364
2188 24.87000 268.05028 285.00000 0.00351
2189 24.88000 268.97663 286.00000 0.00350
2190 24.89000 269.95695 295.00000 0.00339
2191 24.90000 270.99674 261.00000 0.00383
2192 24.91000 272.10224 263.00000 0.00380
2193 24.92000 273.28060 251.00000 0.00398
2194 24.93000 274.53997 274.00000 0.00365
2195 24.94000 275.88982 257.00000 0.00389
2196 24.95000 277.34105 282.00000 0.00355
2197 24.96000 278.90625 294.00000 0.00340
2198 24.97000 280.60011 271.00000 0.00369
2199 24.98000 282.43982 269.00000 0.00372
2200 24.99000 284.44568 267.00000 0.00375
2201 25.00000 286.64172 278.00000 0.00360
2202 25.01000 289.05664 281.00000 0.00356
2203 25.02000 291.72492 273.00000 0.00366
2204 25.03000 294.68830 294.00000 0.00340
2205 25.04000 297.99777 302.00000 0.00331
2206 25.05000 301.71742 282.00000 0.00355
2207 25.06000 305.92310 288.00000 0.00347
2208 25.07000 310.68895 306.00000 0.00327
2209 25.08000 316.14268 302.00000 0.00331
2210 25.09000 322.42300 303.00000 0.00330
2211 25.10000 329.69617 322.00000 0.00311
2212 25.11000 338.15541 310.00000 0.00323
2213 25.12000 348.01433 347.00000 0.00288
2214 25.13000 359.49247 377.00000 0.00265
2215 25.14000 372.79549 372.00000 0.00269
2216 25.15000 388.09878 385.00000 0.00260
2217 25.16000 405.54369 397.00000 0.00252
2218 25.17000 425.24708 415.00000 0.00241
2219 25.18000 447.31512 473.00000 0.00211
2220 25.19000 471.85038 485.00000 0.00206
2221 25.20000 498.94514 529.00000 0.00189
2222 25.21000 528.65591 569.00000 0.00176
2223 25.22000 560.95224 599.00000 0.00167
2224 25.23000 595.62765 632.00000 0.00158
2225 25.24000 632.15429 714.00000 0.00140
2226 25.25000 669.46086 695.00000 0.00144
2227 25.26000 705.63127 744.00000 0.00134
2228 25.27000 737.59239 759.00000 0.00132
2229 25.28000 761.02747 733.00000 0.00136
2230 25.29000 770.97860 727.00000 0.00138
2231 25.30000 763.54865 728.00000 0.00137
2232 25.31000 738.21231 747.00000 0.00134
2233 25.32000 698.90861 682.00000 0.00147
2234 25.33000 652.48573 696.00000 0.00144
2235 25.34000 605.67007 608.00000 0.00164
2236 25.35000 563.00091 593.00000 0.00169
2237 25.36000 526.57514 555.00000 0.00180
2238 25.37000 496.79218 548.00000 0.00182
2239 25.38000 473.18651 465.00000 0.00215
2240 25.39000 454.98839 407.00000 0.00246
2241 25.40000 441.41624 386.00000 0.00259
2242 25.41000 431.80030 388.00000 0.00258
2243 25.42000 425.62098 402.00000 0.00249
2244 25.43000 422.51059 389.00000 0.00257
2245 25.44000 422.24306 395.00000 0.00253
2246 25.45000 424.72173 476.00000 0.00210
2247 25.46000 429.96850 399.00000 0.00251
2248 25.47000 438.11282 456.00000 0.00219
2249 25.48000 449.37637 417.00000 0.00240
2250 25.49000 464.04751 448.00000 0.00223
2251 25.50000 482.44296 483.00000 0.00207
2252 25.51000 504.86374 462.00000 0.00216
2253 25.52000 531.56271 554.00000 0.00181
2254 25.53000 562.73902 595.00000 0.00168
2255 25.54000 598.55556 679.00000 0.00147
2256 25.55000 639.16007 683.00000 0.00146
2257 25.56000 684.68917 806.00000 0.00124
2258 25.57000 735.24185 900.00000 0.00111
2259 25.58000 790.81076 960.00000 0.00104
2260 25.59000 851.15355 993.00000 0.00101
2261 25.60000 915.57558 1093.00000 0.00091
2262 25.61000 982.58641 1135.00000 0.00088
2263 25.62000 1049.40319 1182.00000 0.00085
2264 25.63000 1111.34902 1233.00000 0.00081
2265 25.64000 1161.40975 1275.00000 0.00078
2266 25.65000 1190.60545 1282.00000 0.00078
2267 25.66000 1190.10201 1282.00000 0.00078
2268 25.67000 1155.19931 1318.00000 0.00076
2269 25.68000 1088.97492 1235.00000 0.00081
2270 25.69000 1001.97827 1116.00000 0.00090
2271 25.70000 907.49673 1052.00000 0.00095
2272 25.71000 816.36060 968.00000 0.00103
2273 25.72000 734.75733 844.00000 0.00118
2274 25.73000 664.86244 746.00000 0.00134
2275 25.74000 606.42988 688.00000 0.00145
2276 25.75000 558.12601 587.00000 0.00170
2277 25.76000 518.32146 548.00000 0.00182
2278 25.77000 485.46598 426.00000 0.00235
2279 25.78000 458.22566 444.00000 0.00225
2280 25.79000 435.50636 393.00000 0.00254
2281 25.80000 416.43148 369.00000 0.00271
2282 25.81000 400.30592 353.00000 0.00283
2283 25.82000 386.58033 350.00000 0.00286
2284 25.83000 374.82000 332.00000 0.00301
2285 25.84000 364.67970 318.00000 0.00314
2286 25.85000 355.88386 335.00000 0.00299
2287 25.86000 348.21124 304.00000 0.00329
2288 25.87000 341.48304 322.00000 0.00311
2289 25.88000 335.55390 301.00000 0.00332
2290 25.89000 330.30476 307.00000 0.00326
2291 25.90000 325.63760 337.00000 0.00297
2292 25.91000 321.47121 316.00000 0.00316
2293 25.92000 317.73787 307.00000 0.00326
2294 25.93000 314.38082 331.00000 0.00302
2295 25.94000 311.35222 298.00000 0.00336
2296 25.95000 308.61154 323.00000 0.00310
2297 25.96000 306.12426 273.00000 0.00366
2298 25.97000 303.86085 282.00000 0.00355
2299 25.98000 301.79594 284.00000 0.00352
2300 25.99000 299.90769 294.00000 0.00340
2301 26.00000 298.17714 288.00000 0.00347
2302 26.01000 296.58777 273.00000 0.00366
2303 26.02000 295.12518 283.00000 0.00353
2304 26.03000 293.77672 288.00000 0.00347
2305 26.04000 292.53126 275.00000 0.00364
2306 26.05000 291.37897 293.00000 0.00341
2307 26.06000 290.31107 277.00000 0.00361
2308 26.07000 289.31962 292.00000 0.00342
2309 26.08000 288.39702 285.00000 0.00351
2310 26.09000 287.53480 316.00000 0.00316
2311 26.10000 286.73866 251.00000 0.00398
2312 26.11000 285.99814 253.00000 0.00395
2313 26.12000 285.30724 247.00000 0.00405
2314 26.13000 284.66203 273.00000 0.00366
2315 26.14000 284.05897 303.00000 0.00330
2316 26.15000 283.49486 285.00000 0.00351
2317 26.16000 282.96679 268.00000 0.00373
2318 26.17000 282.47213 275.00000 0.00364
2319 26.18000 282.00851 280.00000 0.00357
2320 26.19000 281.57373 293.00000 0.00341
2321 26.20000 281.16583 249.00000 0.00402
2322 26.21000 280.78299 264.00000 0.00379
2323 26.22000 280.42356 268.00000 0.00373
2324 26.23000 280.08604 265.00000 0.00377
2325 26.24000 279.76903 281.00000 0.00356
2326 26.25000 279.47128 258.00000 0.00388
2327 26.26000 279.19162 267.00000 0.00375
2328 26.27000 278.92898 261.00000 0.00383
2329 26.28000 278.68238 271.00000 0.00369
2330 26.29000 278.45093 235.00000 0.00426
2331 26.30000 278.23378 264.00000 0.00379
2332 26.31000 278.03019 285.00000 0.00351
2333 26.32000 277.83945 282.00000 0.00355
2334 26.33000 277.66091 280.00000 0.00357
2335 26.34000 277.49400 245.00000 0.00408
2336 26.35000 277.33817 250.00000 0.00400
2337 26.36000 277.19293 256.00000 0.00391
2338 26.37000 277.05782 272.00000 0.00368
2339 26.38000 276.93244 290.00000 0.00345
2340 26.39000 276.81641 272.00000 0.00368
2341 26.40000 276.70939 264.00000 0.00379
2342 26.41000 276.61109 273.00000 0.00366
2343 26.42000 276.52123 286.00000 0.00350
2344 26.43000 276.43959 287.00000 0.00348
2345 26.44000 276.36594 289.00000 0.00346
2346 26.45000 276.30013 292.00000 0.00342
2347 26.46000 276.24201 275.00000 0.00364
2348 26.47000 276.19146 293.00000 0.00341
2349 26.48000 276.14839 273.00000 0.00366
2350 26.49000 276.11276 241.00000 0.00415
2351 26.50000 276.08455 263.00000 0.00380
2352 26.51000 276.06376 275.00000 0.00364
2353 26.52000 276.05044 291.00000 0.00344
2354 26.53000 276.04466 279.00000 0.00358
2355 26.54000 276.04655 275.00000 0.00364
2356 26.55000 276.05625 266.00000 0.00376
2357 26.56000 276.07397 254.00000 0.00394
2358 26.57000 276.09995 273.00000 0.00366
2359 26.58000 276.13448 285.00000 0.00351
2360 26.59000 276.17791 245.00000 0.00408
2361 26.60000 276.23065 263.00000 0.00380
2362 26.61000 276.29318 284.00000 0.00352
2363 26.62000 276.36605 267.00000 0.00375
2364 26.63000 276.44989 269.00000 0.00372
2365 26.64000 276.54544 268.00000 0.00373
2366 26.65000 276.65353 271.00000 0.00369
2367 26.66000 276.77514 267.00000 0.00375
2368 26.67000 276.91136 267.00000 0.00375
2369 26.68000 277.06347 256.00000 0.00391
2370 26.69000 277.23293 293.00000 0.00341
2371 26.70000 277.42147 299.00000 0.00334
2372 26.71000 277.63096 293.00000 0.00341
2373 26.72000 277.86347 283.00000 0.00353
2374 26.73000 278.12174 305.00000 0.00328
2375 26.74000 278.40877 266.00000 0.00376
2376 26.75000 278.72810 247.00000 0.00405
2377 26.76000 279.08382 273.00000 0.00366
2378 26.77000 279.48081 265.00000 0.00377
2379 26.78000 279.92479 266.00000 0.00376
2380 26.79000 280.42261 252.00000 0.00397
2381 26.80000 280.98258 270.00000 0.00370
2382 26.81000 281.61460 256.00000 0.00391
2383 26.82000 282.33059 273.00000 0.00366
2384 26.83000 283.14497 270.00000 0.00370
2385 26.84000 284.07535 255.00000 0.00392
2386 26.85000 285.14320 262.00000 0.00382
2387 26.86000 286.37477 269.00000 0.00372
2388 26.87000 287.80203 263.00000 0.00380
2389 26.88000 289.46370 287.00000 0.00348
2390 26.89000 291.40629 295.00000 0.00339
2391 26.90000 293.68901 287.00000 0.00348
2392 26.91000 296.35383 301.00000 0.00332
2393 26.92000 299.45516 291.00000 0.00344
2394 26.93000 303.06145 308.00000 0.00325
2395 26.94000 307.22280 309.00000 0.00324
2396 26.95000 311.97955 304.00000 0.00329
2397 26.96000 317.36175 330.00000 0.00303
2398 26.97000 323.38957 367.00000 0.00272
2399 26.98000 330.07155 339.00000 0.00295
2400 26.99000 337.39847 352.00000 0.00284
2401 27.00000 345.33042 321.00000 0.00312
2402 27.01000 353.77479 332.00000 0.00301
2403 27.02000 362.55217 387.00000 0.00258
2404 27.03000 371.34875 380.00000 0.00263
2405 27.04000 379.65959 350.00000 0.00286
2406 27.05000 386.74410 389.00000 0.00257
2407 27.06000 391.64519 374.00000 0.00267
2408 27.07000 393.35008 364.00000 0.00275
2409 27.08000 391.13231 354.00000 0.00282
2410 27.09000 384.95146 353.00000 0.00283
2411 27.10000 375.60948 351.00000 0.00285
2412 27.11000 364.46738 360.00000 0.00278
2413 27.12000 352.91438 329.00000 0.00304
2414 27.13000 341.97020 333.00000 0.00300
2415 27.14000 332.18549 326.00000 0.00307
2416 27.15000 323.74258 310.00000 0.00323
2417 27.16000 316.60471 318.00000 0.00314
2418 27.17000 310.63318 289.00000 0.00346
2419 27.18000 305.65801 332.00000 0.00301
2420 27.19000 301.51323 298.00000 0.00336
2421 27.20000 298.05156 283.00000 0.00353
2422 27.21000 295.14842 274.00000 0.00365
2423 27.22000 292.70120 250.00000 0.00400
2424 27.23000 290.62657 267.00000 0.00375
2425 27.24000 288.85746 289.00000 0.00346
2426 27.25000 287.34009 257.00000 0.00389
2427 27.26000 286.03138 288.00000 0.00347
2428 27.27000 284.89674 258.00000 0.00388
2429 27.28000 283.90836 271.00000 0.00369
2430 27.29000 283.04371 243.00000 0.00412
2431 27.30000 282.28449 282.00000 0.00355
2432 27.31000 281.61571 266.00000 0.00376
2433 27.32000 281.02500 314.00000 0.00318
2434 27.33000 280.50216 297.00000 0.00337
2435 27.34000 280.03864 260.00000 0.00385
2436 27.35000 279.62732 263.00000 0.00380
2437 27.36000 279.26217 271.00000 0.00369
2438 27.37000 278.93810 298.00000 0.00336
2439 27.38000 278.65081 281.00000 0.00356
2440 27.39000 278.39666 280.00000 0.00357
2441 27.40000 278.17258 248.00000 0.00403
2442 27.41000 277.97592 264.00000 0.00379
2443 27.42000 277.80446 281.00000 0.00356
2444 27.43000 277.65631 274.00000 0.00365
2445 27.44000 277.52986 262.00000 0.00382
2446 27.45000 277.42379 259.00000 0.00386
2447 27.46000 277.33696 276.00000 0.00362
2448 27.47000 277.26845 282.00000 0.00355
2449 27.48000 277.21753 234.00000 0.00427
2450 27.49000 277.18358 301.00000 0.00332
2451 27.50000 277.16614 275.00000 0.00364
2452 27.51000 277.16487 270.00000 0.00370
2453 27.52000 277.17947 274.00000 0.00365
2454 27.53000 277.20960 283.00000 0.00353
2455 27.54000 277.25458 269.00000 0.00372
2456 27.55000 277.31011 283.00000 0.00353
2457 27.56000 277.38879 272.00000 0.00368
2458 27.57000 277.49166 237.00000 0.00422
2459 27.58000 277.61302 257.00000 0.00389
2460 27.59000 277.75368 262.00000 0.00382
2461 27.60000 277.91463 289.00000 0.00346
2462 27.61000 278.09702 287.00000 0.00348
2463 27.62000 278.30216 274.00000 0.00365
2464 27.63000 278.53156 276.00000 0.00362
2465 27.64000 278.78699 290.00000 0.00345
2466 27.65000 279.07044 264.00000 0.00379
2467 27.66000 279.38420 265.00000 0.00377
2468 27.67000 279.73095 256.00000 0.00391
2469 27.68000 280.11385 262.00000 0.00382
2470 27.69000 280.53771 271.00000 0.00369
2471 27.70000 281.00280 281.00000 0.00356
2472 27.71000 281.51296 296.00000 0.00338
2473 27.72000 282.07514 308.00000 0.00325
2474 27.73000 282.69505 265.00000 0.00377
2475 27.74000 283.37925 282.00000 0.00355
2476 27.75000 284.13530 289.00000 0.00346
2477 27.76000 284.97200 283.00000 0.00353
2478 27.77000 285.89954 297.00000 0.00337
2479 27.78000 286.92988 264.00000 0.00379
2480 27.79000 288.07704 280.00000 0.00357
2481 27.80000 289.35757 300.00000 0.00333
2482 27.81000 290.79109 312.00000 0.00321
2483 27.82000 292.40102 299.00000 0.00334
2484 27.83000 294.21542 264.00000 0.00379
2485 27.84000 296.26807 276.00000 0.00362
2486 27.85000 298.59981 281.00000 0.00356
2487 27.86000 301.26015 288.00000 0.00347
2488 27.87000 304.30924 292.00000 0.00342
2489 27.88000 307.82009 279.00000 0.00358
2490 27.89000 311.88104 306.00000 0.00327
2491 27.90000 316.59812 314.00000 0.00318
2492 27.91000 322.09675 327.00000 0.00306
2493 27.92000 328.52172 316.00000 0.00316
2494 27.93000 336.03415 332.00000 0.00301
2495 27.94000 344.80400 330.00000 0.00303
2496 27.95000 354.99820 385.00000 0.00260
2497 27.96000 366.76680 366.00000 0.00273
2498 27.97000 380.23101 391.00000 0.00256
2499 27.98000 395.47578 402.00000 0.00249
2500 27.99000 412.54467 473.00000 0.00211
2501 28.00000 431.43084 457.00000 0.00219
2502 28.01000 452.05652 516.00000 0.00194
2503 28.02000 474.23413 572.00000 0.00175
2504 28.03000 497.60262 577.00000 0.00173
2505 28.04000 521.53448 568.00000 0.00176
2506 28.05000 545.01586 567.00000 0.00176
2507 28.06000 566.52518 633.00000 0.00158
2508 28.07000 583.98253 624.00000 0.00160
2509 28.08000 594.90794 640.00000 0.00156
2510 28.09000 596.94281 623.00000 0.00161
2511 28.10000 588.71873 662.00000 0.00151
2512 28.11000 570.66653 575.00000 0.00174
2513 28.12000 545.11928 609.00000 0.00164
2514 28.13000 515.48697 607.00000 0.00165
2515 28.14000 485.06508 592.00000 0.00169
2516 28.15000 456.23462 493.00000 0.00203
2517 28.16000 430.29824 504.00000 0.00198
2518 28.17000 407.71548 433.00000 0.00231
2519 28.18000 388.43119 402.00000 0.00249
2520 28.19000 372.13715 344.00000 0.00291
2521 28.20000 358.43521 337.00000 0.00297
2522 28.21000 346.92380 332.00000 0.00301
2523 28.22000 337.23713 310.00000 0.00323
2524 28.23000 329.05884 306.00000 0.00327
2525 28.24000 322.12333 283.00000 0.00353
2526 28.25000 316.21166 304.00000 0.00329
2527 28.26000 311.14568 295.00000 0.00339
2528 28.27000 306.78466 307.00000 0.00326
2529 28.28000 303.00266 307.00000 0.00326
2530 28.29000 299.70174 300.00000 0.00333
2531 28.30000 296.81237 285.00000 0.00351
2532 28.31000 294.27250 282.00000 0.00355
2533 28.32000 292.03136 272.00000 0.00368
2534 28.33000 290.04704 269.00000 0.00372
2535 28.34000 288.28453 303.00000 0.00330
2536 28.35000 286.71411 293.00000 0.00341
2537 28.36000 285.30985 271.00000 0.00369
2538 28.37000 284.04836 316.00000 0.00316
2539 28.38000 282.90742 284.00000 0.00352
2540 28.39000 281.86490 263.00000 0.00380
2541 28.40000 280.89797 262.00000 0.00382
2542 28.41000 279.98339 278.00000 0.00360
2543 28.42000 279.09955 285.00000 0.00351
2544 28.43000 278.23036 299.00000 0.00334
2545 28.44000 277.36931 291.00000 0.00344
2546 28.45000 276.52060 288.00000 0.00347
2547 28.46000 275.69586 281.00000 0.00356
2548 28.47000 274.90695 281.00000 0.00356
2549 28.48000 274.16254 261.00000 0.00383
2550 28.49000 273.46743 297.00000 0.00337
2551 28.50000 272.82161 258.00000 0.00388
2552 28.51000 272.22249 282.00000 0.00355
2553 28.52000 271.66621 277.00000 0.00361
2554 28.53000 271.14855 291.00000 0.00344
2555 28.54000 270.66541 267.00000 0.00375
2556 28.55000 270.21303 294.00000 0.00340
2557 28.56000 269.78808 260.00000 0.00385
2558 28.57000 269.38764 308.00000 0.00325
2559 28.58000 269.00917 272.00000 0.00368
2560 28.59000 268.65047 263.00000 0.00380
2561 28.60000 268.30965 258.00000 0.00388
2562 28.61000 267.98507 293.00000 0.00341
2563 28.62000 267.67531 278.00000 0.00360
2564 28.63000 267.37911 302.00000 0.00331
2565 28.64000 267.09540 292.00000 0.00342
2566 28.65000 266.82321 282.00000 0.00355
2567 28.66000 266.56170 275.00000 0.00364
2568 28.67000 266.31012 298.00000 0.00336
2569 28.68000 266.06781 278.00000 0.00360
2570 28.69000 265.83416 277.00000 0.00361
2571 28.70000 265.60864 289.00000 0.00346
2572 28.71000 265.39078 300.00000 0.00333
2573 28.72000 265.18013 309.00000 0.00324
2574 28.73000 264.97632 264.00000 0.00379
2575 28.74000 264.77899 298.00000 0.00336
2576 28.75000 264.58783 264.00000 0.00379
2577 28.76000 264.40255 276.00000 0.00362
2578 28.77000 264.22290 269.00000 0.00372
2579 28.78000 264.04866 280.00000 0.00357
2580 28.79000 263.87963 289.00000 0.00346
2581 28.80000 263.71561 281.00000 0.00356
2582 28.81000 263.55645 280.00000 0.00357
2583 28.82000 263.40202 291.00000 0.00344
2584 28.83000 263.25218 312.00000 0.00321
2585 28.84000 263.10684 270.00000 0.00370
2586 28.85000 262.96591 296.00000 0.00338
2587 28.86000 262.82931 276.00000 0.00362
2588 28.87000 262.69699 292.00000 0.00342
2589 28.88000 262.56890 276.00000 0.00362
2590 28.89000 262.44502 281.00000 0.00356
2591 28.90000 262.32534 269.00000 0.00372
2592 28.91000 262.20985 294.00000 0.00340
2593 28.92000 262.09858 272.00000 0.00368
2594 28.93000 261.99153 311.00000 0.00322
2595 28.94000 261.88877 263.00000 0.00380
2596 28.95000 261.79033 286.00000 0.00350
2597 28.96000 261.69631 261.00000 0.00383
2598 28.97000 261.60677 275.00000 0.00364
2599 28.98000 261.52182 298.00000 0.00336
2600 28.99000 261.44157 260.00000 0.00385
2601 29.00000 261.36616 266.00000 0.00376
2602 29.01000 261.29575 282.00000 0.00355
2603 29.02000 261.23048 272.00000 0.00368
2604 29.03000 261.17057 270.00000 0.00370
2605 29.04000 261.11621 279.00000 0.00358
2606 29.05000 261.06763 291.00000 0.00344
2607 29.06000 261.02510 261.00000 0.00383
2608 29.07000 260.98888 317.00000 0.00315
2609 29.08000 260.95929 278.00000 0.00360
2610 29.09000 260.93667 253.00000 0.00395
2611 29.10000 260.92139 259.00000 0.00386
2612 29.11000 260.91385 303.00000 0.00330
2613 29.12000 260.91450 282.00000 0.00355
2614 29.13000 260.92382 297.00000 0.00337
2615 29.14000 260.94236 274.00000 0.00365
2616 29.15000 260.97068 292.00000 0.00342
2617 29.16000 261.00944 283.00000 0.00353
2618 29.17000 261.05934 288.00000 0.00347
2619 29.18000 261.12116 305.00000 0.00328
2620 29.19000 261.19573 299.00000 0.00334
2621 29.20000 261.28401 314.00000 0.00318
2622 29.21000 261.38702 274.00000 0.00365
2623 29.22000 261.50592 285.00000 0.00351
2624 29.23000 261.64193 277.00000 0.00361
2625 29.24000 261.79648 271.00000 0.00369
2626 29.25000 261.97110 290.00000 0.00345
2627 29.26000 262.16753 270.00000 0.00370
2628 29.27000 262.38768 257.00000 0.00389
2629 29.28000 262.63370 288.00000 0.00347
2630 29.29000 262.90799 291.00000 0.00344
2631 29.30000 263.21323 283.00000 0.00353
2632 29.31000 263.55246 252.00000 0.00397
2633 29.32000 263.92908 290.00000 0.00345
2634 29.33000 264.34695 273.00000 0.00366
2635 29.34000 264.81044 261.00000 0.00383
2636 29.35000 265.32454 277.00000 0.00361
2637 29.36000 265.89491 268.00000 0.00373
2638 29.37000 266.52807 289.00000 0.00346
2639 29.38000 267.23150 259.00000 0.00386
2640 29.39000 268.01384 301.00000 0.00332
2641 29.40000 268.88511 279.00000 0.00358
2642 29.41000 269.85702 275.00000 0.00364
2643 29.42000 270.94323 310.00000 0.00323
2644 29.43000 272.15988 263.00000 0.00380
2645 29.44000 273.52602 304.00000 0.00329
2646 29.45000 275.06435 308.00000 0.00325
2647 29.46000 276.80197 294.00000 0.00340
2648 29.47000 278.77137 292.00000 0.00342
2649 29.48000 281.01167 307.00000 0.00326
2650 29.49000 283.57005 289.00000 0.00346
2651 29.50000 286.50341 265.00000 0.00377
2652 29.51000 289.88029 298.00000 0.00336
2653 29.52000 293.78291 293.00000 0.00341
2654 29.53000 298.30899 300.00000 0.00333
2655 29.54000 303.57308 313.00000 0.00319
2656 29.55000 309.70638 325.00000 0.00308
2657 29.56000 316.85425 330.00000 0.00303
2658 29.57000 325.16995 330.00000 0.00303
2659 29.58000 334.80447 359.00000 0.00279
2660 29.59000 345.89304 351.00000 0.00285
2661 29.60000 358.54081 377.00000 0.00265
2662 29.61000 372.80968 395.00000 0.00253
2663 29.62000 388.70595 394.00000 0.00254
2664 29.63000 406.16486 426.00000 0.00235
2665 29.64000 425.02579 485.00000 0.00206
2666 29.65000 444.99238 498.00000 0.00201
2667 29.66000 465.57357 503.00000 0.00199
2668 29.67000 486.00746 550.00000 0.00182
2669 29.68000 505.18259 573.00000 0.00175
2670 29.69000 521.59698 521.00000 0.00192
2671 29.70000 533.43030 579.00000 0.00173
2672 29.71000 538.82357 534.00000 0.00187
2673 29.72000 536.39583 560.00000 0.00179
2674 29.73000 525.83618 546.00000 0.00183
2675 29.74000 508.21036 570.00000 0.00175
2676 29.75000 485.69527 497.00000 0.00201
2677 29.76000 460.86252 501.00000 0.00200
2678 29.77000 435.95957 450.00000 0.00222
2679 29.78000 412.53122 447.00000 0.00224
2680 29.79000 391.39217 409.00000 0.00244
2681 29.80000 372.84107 363.00000 0.00275
2682 29.81000 356.83515 361.00000 0.00277
2683 29.82000 343.16149 307.00000 0.00326
2684 29.83000 331.54010 329.00000 0.00304
2685 29.84000 321.68141 324.00000 0.00309
2686 29.85000 313.31441 288.00000 0.00347
2687 29.86000 306.20014 278.00000 0.00360
2688 29.87000 300.13219 273.00000 0.00366
2689 29.88000 294.93531 289.00000 0.00346
2690 29.89000 290.46426 271.00000 0.00369
2691 29.90000 286.59923 273.00000 0.00366
2692 29.91000 283.24194 301.00000 0.00332
2693 29.92000 280.31216 247.00000 0.00405
2694 29.93000 277.74441 283.00000 0.00353
2695 29.94000 275.48528 271.00000 0.00369
2696 29.95000 273.49109 271.00000 0.00369
2697 29.96000 271.72604 268.00000 0.00373
2698 29.97000 270.16008 288.00000 0.00347
2699 29.98000 268.76893 279.00000 0.00358
2700 29.99000 267.53210 283.00000 0.00353
2701 30.00000 266.43247 239.00000 0.00418
2702 30.01000 265.45561 282.00000 0.00355
2703 30.02000 264.58940 290.00000 0.00345
2704 30.03000 263.82357 254.00000 0.00394
2705 30.04000 263.14949 267.00000 0.00375
2706 30.05000 262.55987 245.00000 0.00408
2707 30.06000 262.04858 304.00000 0.00329
2708 30.07000 261.61052 304.00000 0.00329
2709 30.08000 261.24147 259.00000 0.00386
2710 30.09000 260.93799 264.00000 0.00379
2711 30.10000 260.69735 266.00000 0.00376
2712 30.11000 260.51746 299.00000 0.00334
2713 30.12000 260.39681 268.00000 0.00373
2714 30.13000 260.33444 279.00000 0.00358
2715 30.14000 260.32992 257.00000 0.00389
2716 30.15000 260.38331 267.00000 0.00375
2717 30.16000 260.49516 242.00000 0.00413
2718 30.17000 260.66652 252.00000 0.00397
2719 30.18000 260.89894 288.00000 0.00347
2720 30.19000 261.19450 259.00000 0.00386
2721 30.20000 261.55581 255.00000 0.00392
2722 30.21000 261.98607 245.00000 0.00408
2723 30.22000 262.48911 263.00000 0.00380
2724 30.23000 263.06943 266.00000 0.00376
2725 30.24000 263.73232 287.00000 0.00348
2726 30.25000 264.48389 236.00000 0.00424
2727 30.26000 265.33124 266.00000 0.00376
2728 30.27000 266.28252 284.00000 0.00352
2729 30.28000 267.34713 272.00000 0.00368
2730 30.29000 268.53591 261.00000 0.00383
2731 30.30000 269.86135 266.00000 0.00376
2732 30.31000 271.33785 291.00000 0.00344
2733 30.32000 272.98209 274.00000 0.00365
2734 30.33000 274.81343 274.00000 0.00365
2735 30.34000 276.85441 259.00000 0.00386
2736 30.35000 279.13137 274.00000 0.00365
2737 30.36000 281.67524 275.00000 0.00364
2738 30.37000 284.52250 301.00000 0.00332
2739 30.38000 287.71633 280.00000 0.00357
2740 30.39000 291.30812 295.00000 0.00339
2741 30.40000 295.35921 283.00000 0.00353
2742 30.41000 299.94312 283.00000 0.00353
2743 30.42000 305.14814 279.00000 0.00358
2744 30.43000 311.08044 318.00000 0.00314
2745 30.44000 317.86761 314.00000 0.00318
2746 30.45000 325.66269 315.00000 0.00317
2747 30.46000 334.64814 293.00000 0.00341
2748 30.47000 345.03957 351.00000 0.00285
2749 30.48000 357.08793 328.00000 0.00305
2750 30.49000 371.07877 357.00000 0.00280
2751 30.50000 387.32635 352.00000 0.00284
2752 30.51000 406.16014 366.00000 0.00273
2753 30.52000 427.90249 395.00000 0.00253
2754 30.53000 452.83829 479.00000 0.00209
2755 30.54000 481.18045 516.00000 0.00194
2756 30.55000 513.03507 534.00000 0.00187
2757 30.56000 548.36646 559.00000 0.00179
2758 30.57000 586.95523 635.00000 0.00157
2759 30.58000 628.33798 662.00000 0.00151
2760 30.59000 671.71746 712.00000 0.00140
2761 30.60000 715.83919 715.00000 0.00140
2762 30.61000 758.84623 779.00000 0.00128
2763 30.62000 798.15843 713.00000 0.00140
2764 30.63000 830.47548 791.00000 0.00126
2765 30.64000 852.05918 802.00000 0.00125
2766 30.65000 859.43455 788.00000 0.00127
2767 30.66000 850.45308 785.00000 0.00127
2768 30.67000 825.28916 783.00000 0.00128
2769 30.68000 786.71459 795.00000 0.00126
2770 30.69000 739.30977 739.00000 0.00135
2771 30.70000 688.08401 715.00000 0.00140
2772 30.71000 637.25193 629.00000 0.00159
2773 30.72000 589.66069 620.00000 0.00161
2774 30.73000 546.83889 548.00000 0.00182
2775 30.74000 509.33544 498.00000 0.00201
2776 30.75000 477.09342 453.00000 0.00221
2777 30.76000 449.74038 399.00000 0.00251
2778 30.77000 426.77661 390.00000 0.00256
2779 30.78000 407.68293 379.00000 0.00264
2780 30.79000 391.97583 321.00000 0.00312
2781 30.80000 379.23148 330.00000 0.00303
2782 30.81000 369.09207 334.00000 0.00299
2783 30.82000 361.26231 314.00000 0.00318
2784 30.83000 355.50022 290.00000 0.00345
2785 30.84000 351.60494 266.00000 0.00376
2786 30.85000 349.40342 291.00000 0.00344
2787 30.86000 348.73713 317.00000 0.00315
2788 30.87000 349.44909 324.00000 0.00309
2789 30.88000 351.36988 295.00000 0.00339
2790 30.89000 354.30065 312.00000 0.00321
2791 30.90000 357.99158 308.00000 0.00325
2792 30.91000 362.11558 280.00000 0.00357
2793 30.92000 366.24133 307.00000 0.00326
2794 30.93000 369.81633 302.00000 0.00331
2795 30.94000 372.18099 306.00000 0.00327
2796 30.95000 372.64125 304.00000 0.00329
2797 30.96000 370.61539 302.00000 0.00331
2798 30.97000 365.82411 299.00000 0.00334
2799 30.98000 358.43082 285.00000 0.00351
2800 30.99000 349.02767 322.00000 0.00311
2801 31.00000 338.45327 290.00000 0.00345
2802 31.01000 327.54679 249.00000 0.00402
2803 31.02000 316.96773 287.00000 0.00348
2804 31.03000 307.13397 310.00000 0.00323
2805 31.04000 298.24889 257.00000 0.00389
2806 31.05000 290.36430 262.00000 0.00382
2807 31.06000 283.44153 245.00000 0.00408
2808 31.07000 277.39651 261.00000 0.00383
2809 31.08000 272.12800 275.00000 0.00364
2810 31.09000 267.53354 234.00000 0.00427
2811 31.10000 263.51734 252.00000 0.00397
2812 31.11000 259.99371 239.00000 0.00418
2813 31.12000 256.88798 253.00000 0.00395
2814 31.13000 254.13612 262.00000 0.00382
2815 31.14000 251.68373 237.00000 0.00422
2816 31.15000 249.48433 241.00000 0.00415
2817 31.16000 247.49489 266.00000 0.00376
2818 31.17000 245.69931 283.00000 0.00353
2819 31.18000 244.07308 252.00000 0.00397
2820 31.19000 242.58591 267.00000 0.00375
2821 31.20000 241.21988 242.00000 0.00413
2822 31.21000 239.96005 245.00000 0.00408
2823 31.22000 238.79407 237.00000 0.00422
2824 31.23000 237.71021 246.00000 0.00407
2825 31.24000 236.70008 221.00000 0.00452
2826 31.25000 235.75591 246.00000 0.00407
2827 31.26000 234.87103 247.00000 0.00405
2828 31.27000 234.03965 225.00000 0.00444
2829 31.28000 233.25674 254.00000 0.00394
2830 31.29000 232.51791 248.00000 0.00403
2831 31.30000 231.81930 231.00000 0.00433
2832 31.31000 231.15752 241.00000 0.00415
2833 31.32000 230.52958 239.00000 0.00418
2834 31.33000 229.93283 242.00000 0.00413
2835 31.34000 229.36492 232.00000 0.00431
2836 31.35000 228.82375 238.00000 0.00420
2837 31.36000 228.30748 220.00000 0.00455
2838 31.37000 227.81443 240.00000 0.00417
2839 31.38000 227.34312 219.00000 0.00457
2840 31.39000 226.89224 230.00000 0.00435
2841 31.40000 226.46059 200.00000 0.00500
2842 31.41000 226.04712 237.00000 0.00422
2843 31.42000 225.65087 227.00000 0.00441
2844 31.43000 225.27085 227.00000 0.00441
2845 31.44000 224.90626 207.00000 0.00483
2846 31.45000 224.55641 234.00000 0.00427
2847 31.46000 224.22069 203.00000 0.00493
2848 31.47000 223.89855 237.00000 0.00422
2849 31.48000 223.58950 226.00000 0.00442
2850 31.49000 223.29311 224.00000 0.00446
2851 31.50000 223.00899 199.00000 0.00503
2852 31.51000 222.73681 196.00000 0.00510
2853 31.52000 222.47622 231.00000 0.00433
2854 31.53000 222.22693 230.00000 0.00435
2855 31.54000 221.98860 239.00000 0.00418
2856 31.55000 221.76081 231.00000 0.00433
2857 31.56000 221.54292 240.00000 0.00417
2858 31.57000 221.33358 242.00000 0.00413
2859 31.58000 221.12805 241.00000 0.00415
2860 31.59000 220.91971 256.00000 0.00391
2861 31.60000 220.75923 222.00000 0.00450
2862 31.61000 220.61138 243.00000 0.00412
2863 31.62000 220.47648 207.00000 0.00483
2864 31.63000 220.35493 217.00000 0.00461
2865 31.64000 220.24717 219.00000 0.00457
2866 31.65000 220.15374 249.00000 0.00402
2867 31.66000 220.07526 243.00000 0.00412
2868 31.67000 220.01243 229.00000 0.00437
2869 31.68000 219.96605 222.00000 0.00450
2870 31.69000 219.93704 203.00000 0.00493
2871 31.70000 219.92644 225.00000 0.00444
2872 31.71000 219.93540 209.00000 0.00478
2873 31.72000 219.96526 232.00000 0.00431
2874 31.73000 220.01751 211.00000 0.00474
2875 31.74000 220.09384 268.00000 0.00373
2876 31.75000 220.19615 211.00000 0.00474
2877 31.76000 220.32660 219.00000 0.00457
2878 31.77000 220.48765 244.00000 0.00410
2879 31.78000 220.68207 261.00000 0.00383
2880 31.79000 220.91302 239.00000 0.00418
2881 31.80000 221.18411 234.00000 0.00427
2882 31.81000 221.49945 244.00000 0.00410
2883 31.82000 221.86377 247.00000 0.00405
2884 31.83000 222.28251 231.00000 0.00433
2885 31.84000 222.76197 226.00000 0.00442
2886 31.85000 223.30944 237.00000 0.00422
2887 31.86000 223.93342 214.00000 0.00467
2888 31.87000 224.64387 231.00000 0.00433
2889 31.88000 225.45250 209.00000 0.00478
2890 31.89000 226.37316 218.00000 0.00459
2891 31.90000 227.42225 253.00000 0.00395
2892 31.91000 228.61932 231.00000 0.00433
2893 31.92000 229.98768 229.00000 0.00437
2894 31.93000 231.55519 249.00000 0.00402
2895 31.94000 233.35518 220.00000 0.00455
2896 31.95000 235.42741 254.00000 0.00394
2897 31.96000 237.81915 243.00000 0.00412
2898 31.97000 240.58628 267.00000 0.00375
2899 31.98000 243.79412 224.00000 0.00446
2900 31.99000 247.51793 258.00000 0.00388
2901 32.00000 251.84247 225.00000 0.00444
2902 32.01000 256.86015 230.00000 0.00435
2903 32.02000 262.66707 258.00000 0.00388
2904 32.03000 269.35640 299.00000 0.00334
2905 32.04000 277.00897 298.00000 0.00336
2906 32.05000 285.68172 258.00000 0.00388
2907 32.06000 295.39483 295.00000 0.00339
2908 32.07000 306.11788 316.00000 0.00316
2909 32.08000 317.75421 284.00000 0.00352
2910 32.09000 330.12100 292.00000 0.00342
2911 32.10000 342.92266 277.00000 0.00361
2912 32.11000 355.71908 351.00000 0.00285
2913 32.12000 367.89458 315.00000 0.00317
2914 32.13000 378.64378 322.00000 0.00311
2915 32.14000 387.00519 332.00000 0.00301
2916 32.15000 391.97741 288.00000 0.00347
2917 32.16000 392.73324 298.00000 0.00336
2918 32.17000 388.88519 319.00000 0.00313
2919 32.18000 380.67910 343.00000 0.00292
2920 32.19000 368.98242 373.00000 0.00268
2921 32.20000 355.04486 303.00000 0.00330
2922 32.21000 340.15890 320.00000 0.00312
2923 32.22000 325.39078 310.00000 0.00323
2924 32.23000 311.46582 302.00000 0.00331
2925 32.24000 298.78454 293.00000 0.00341
2926 32.25000 287.50216 259.00000 0.00386
2927 32.26000 277.61623 253.00000 0.00395
2928 32.27000 269.03666 222.00000 0.00450
2929 32.28000 261.63289 257.00000 0.00389
2930 32.29000 255.26229 226.00000 0.00442
2931 32.30000 249.78566 218.00000 0.00459
2932 32.31000 245.07490 232.00000 0.00431
2933 32.32000 241.01613 239.00000 0.00418
2934 32.33000 237.51033 213.00000 0.00469
2935 32.34000 234.47277 220.00000 0.00455
2936 32.35000 231.83179 217.00000 0.00461
2937 32.36000 229.52727 208.00000 0.00481
2938 32.37000 227.50917 223.00000 0.00448
2939 32.38000 225.73599 230.00000 0.00435
2940 32.39000 224.17341 222.00000 0.00450
2941 32.40000 222.79313 243.00000 0.00412
2942 32.41000 221.57175 263.00000 0.00380
2943 32.42000 220.48992 231.00000 0.00433
2944 32.43000 219.53161 268.00000 0.00373
2945 32.44000 218.68348 197.00000 0.00508
2946 32.45000 217.93444 234.00000 0.00427
2947 32.46000 217.27521 245.00000 0.00408
2948 32.47000 216.69809 284.00000 0.00352
2949 32.48000 216.19664 234.00000 0.00427
2950 32.49000 215.76553 224.00000 0.00446
2951 32.50000 215.40039 206.00000 0.00485
2952 32.51000 215.09769 244.00000 0.00410
2953 32.52000 214.85462 238.00000 0.00420
2954 32.53000 214.66911 220.00000 0.00455
2955 32.54000 214.53989 225.00000 0.00444
2956 32.55000 214.46607 234.00000 0.00427
2957 32.56000 214.44735 237.00000 0.00422
2958 32.57000 214.48400 223.00000 0.00448
2959 32.58000 214.57688 219.00000 0.00457
2960 32.59000 214.72767 207.00000 0.00483
2961 32.60000 214.93943 241.00000 0.00415
2962 32.61000 215.22428 213.00000 0.00469
2963 32.62000 215.55621 230.00000 0.00435
2964 32.63000 215.95077 226.00000 0.00442
2965 32.64000 216.41594 220.00000 0.00455
2966 32.65000 216.95655 220.00000 0.00455
2967 32.66000 217.57832 229.00000 0.00437
2968 32.67000 218.28790 233.00000 0.00429
2969 32.68000 219.09304 242.00000 0.00413
2970 32.69000 220.00275 236.00000 0.00424
2971 32.70000 221.02754 226.00000 0.00442
2972 32.71000 222.17973 212.00000 0.00472
2973 32.72000 223.47356 220.00000 0.00455
2974 32.73000 224.92571 235.00000 0.00426
2975 32.74000 226.55573 241.00000 0.00415
2976 32.75000 228.38670 241.00000 0.00415
2977 32.76000 230.44597 238.00000 0.00420
2978 32.77000 232.76637 235.00000 0.00426
2979 32.78000 235.39179 251.00000 0.00398
2980 32.79000 238.34970 233.00000 0.00429
2981 32.80000 241.70427 224.00000 0.00446
2982 32.81000 245.52051 261.00000 0.00383
2983 32.82000 249.87525 259.00000 0.00386
2984 32.83000 254.85967 266.00000 0.00376
2985 32.84000 260.58142 271.00000 0.00369
2986 32.85000 267.16653 273.00000 0.00366
2987 32.86000 274.76065 280.00000 0.00357
2988 32.87000 283.52919 291.00000 0.00344
2989 32.88000 293.65514 268.00000 0.00373
2990 32.89000 305.33352 306.00000 0.00327
2991 32.90000 318.76099 299.00000 0.00334
2992 32.91000 334.11963 325.00000 0.00308
2993 32.92000 351.55472 361.00000 0.00277
2994 32.93000 371.14766 399.00000 0.00251
2995 32.94000 392.88550 418.00000 0.00239
2996 32.95000 416.62744 455.00000 0.00220
2997 32.96000 442.06615 467.00000 0.00214
2998 32.97000 468.68043 528.00000 0.00189
2999 32.98000 495.67825 527.00000 0.00190
3000 32.99000 521.93754 481.00000 0.00208
3001 33.00000 545.96850 497.00000 0.00201
3002 33.01000 565.94325 534.00000 0.00187
3003 33.02000 579.85560 536.00000 0.00187
3004 33.03000 585.85802 527.00000 0.00190
3005 33.04000 582.74190 526.00000 0.00190
3006 33.05000 570.39061 544.00000 0.00184
3007 33.06000 549.95121 545.00000 0.00183
3008 33.07000 523.57398 525.00000 0.00190
3009 33.08000 493.83065 485.00000 0.00206
3010 33.09000 463.11053 463.00000 0.00216
3011 33.10000 433.24192 445.00000 0.00225
3012 33.11000 405.39349 401.00000 0.00249
3013 33.12000 380.16458 372.00000 0.00269
3014 33.13000 357.74636 357.00000 0.00280
3015 33.14000 338.07589 322.00000 0.00311
3016 33.15000 320.95248 268.00000 0.00373
3017 33.16000 306.11427 285.00000 0.00351
3018 33.17000 293.28397 262.00000 0.00382
3019 33.18000 282.19386 276.00000 0.00362
3020 33.19000 272.59806 252.00000 0.00397
3021 33.20000 264.27761 233.00000 0.00429
3022 33.21000 257.04136 237.00000 0.00422
3023 33.22000 250.72491 222.00000 0.00450
3024 33.23000 245.18831 218.00000 0.00459
3025 33.24000 240.31344 213.00000 0.00469
3026 33.25000 236.00121 215.00000 0.00465
3027 33.26000 232.16880 220.00000 0.00455
3028 33.27000 228.74719 221.00000 0.00452
3029 33.28000 225.67885 232.00000 0.00431
3030 33.29000 222.91577 211.00000 0.00474
3031 33.30000 220.41782 228.00000 0.00439
3032 33.31000 218.15127 255.00000 0.00392
3033 33.32000 216.08766 233.00000 0.00429
3034 33.33000 214.20282 239.00000 0.00418
3035 33.34000 212.47615 200.00000 0.00500
3036 33.35000 210.88997 235.00000 0.00426
3037 33.36000 209.42899 216.00000 0.00463
3038 33.37000 208.08001 213.00000 0.00469
3039 33.38000 206.83153 210.00000 0.00476
3040 33.39000 205.67360 232.00000 0.00431
3041 33.40000 204.59735 214.00000 0.00467
3042 33.41000 203.59487 240.00000 0.00417
3043 33.42000 202.65837 219.00000 0.00457
3044 33.43000 201.78342 231.00000 0.00433
3045 33.44000 200.96871 223.00000 0.00448
3046 33.45000 200.20765 211.00000 0.00474
3047 33.46000 199.49726 218.00000 0.00459
3048 33.47000 198.82009 226.00000 0.00442
3049 33.48000 198.18236 225.00000 0.00444
3050 33.49000 197.58100 244.00000 0.00410
3051 33.50000 197.01326 180.00000 0.00556
3052 33.51000 196.47667 216.00000 0.00463
3053 33.52000 195.96900 219.00000 0.00457
3054 33.53000 195.48822 226.00000 0.00442
3055 33.54000 195.03252 218.00000 0.00459
3056 33.55000 194.60025 209.00000 0.00478
3057 33.56000 194.18990 226.00000 0.00442
3058 33.57000 193.80011 197.00000 0.00508
3059 33.58000 193.42967 206.00000 0.00485
3060 33.59000 193.07744 216.00000 0.00463
3061 33.60000 192.74241 235.00000 0.00426
3062 33.61000 192.42365 215.00000 0.00465
3063 33.62000 192.12033 193.00000 0.00518
3064 33.63000 191.83168 204.00000 0.00490
3065 33.64000 191.55701 207.00000 0.00483
3066 33.65000 191.29569 224.00000 0.00446
3067 33.66000 191.04715 201.00000 0.00498
3068 33.67000 190.81088 230.00000 0.00435
3069 33.68000 190.58641 224.00000 0.00446
3070 33.69000 190.37334 196.00000 0.00510
3071 33.70000 190.17130 221.00000 0.00452
3072 33.71000 189.97995 221.00000 0.00452
3073 33.72000 189.79901 225.00000 0.00444
3074 33.73000 189.62824 226.00000 0.00442
3075 33.74000 189.46741 201.00000 0.00498
3076 33.75000 189.31636 182.00000 0.00549
3077 33.76000 189.17493 230.00000 0.00435
3078 33.77000 189.04302 219.00000 0.00457
3079 33.78000 188.92055 236.00000 0.00424
3080 33.79000 188.80748 209.00000 0.00478
3081 33.80000 188.70380 196.00000 0.00510
3082 33.81000 188.60951 203.00000 0.00493
3083 33.82000 188.52469 210.00000 0.00476
3084 33.83000 188.44941 206.00000 0.00485
3085 33.84000 188.38381 213.00000 0.00469
3086 33.85000 188.32803 222.00000 0.00450
3087 33.86000 188.28228 191.00000 0.00524
3088 33.87000 188.24679 214.00000 0.00467
3089 33.88000 188.22188 209.00000 0.00478
3090 33.89000 188.20795 219.00000 0.00457
3091 33.90000 188.20542 218.00000 0.00459
3092 33.91000 188.21478 221.00000 0.00452
3093 33.92000 188.23656 196.00000 0.00510
3094 33.93000 188.27145 200.00000 0.00500
3095 33.94000 188.32035 215.00000 0.00465
3096 33.95000 188.38496 227.00000 0.00441
3097 33.96000 188.46697 208.00000 0.00481
3098 33.97000 188.55869 196.00000 0.00510
3099 33.98000 188.66709 199.00000 0.00503
3100 33.99000 188.79327 226.00000 0.00442
3101 34.00000 188.93845 211.00000 0.00474
3102 34.01000 189.10401 211.00000 0.00474
3103 34.02000 189.29150 204.00000 0.00490
3104 34.03000 189.50262 209.00000 0.00478
3105 34.04000 189.73934 204.00000 0.00490
3106 34.05000 190.00385 220.00000 0.00455
3107 34.06000 190.29863 221.00000 0.00452
3108 34.07000 190.62646 207.00000 0.00483
3109 34.08000 190.99053 196.00000 0.00510
3110 34.09000 191.39444 192.00000 0.00521
3111 34.10000 191.84231 216.00000 0.00463
3112 34.11000 192.33895 207.00000 0.00483
3113 34.12000 192.89058 177.00000 0.00565
3114 34.13000 193.50075 222.00000 0.00450
3115 34.14000 194.17796 213.00000 0.00469
3116 34.15000 194.93069 201.00000 0.00498
3117 34.16000 195.76865 199.00000 0.00503
3118 34.17000 196.70321 209.00000 0.00478
3119 34.18000 197.74776 215.00000 0.00465
3120 34.19000 198.91807 224.00000 0.00446
3121 34.20000 200.23284 223.00000 0.00448
3122 34.21000 201.71420 202.00000 0.00495
3123 34.22000 203.38835 218.00000 0.00459
3124 34.23000 205.28631 225.00000 0.00444
3125 34.24000 207.44466 246.00000 0.00407
3126 34.25000 209.90633 213.00000 0.00469
3127 34.26000 212.72132 204.00000 0.00490
3128 34.27000 215.94728 224.00000 0.00446
3129 34.28000 219.64965 234.00000 0.00427
3130 34.29000 223.90123 213.00000 0.00469
3131 34.30000 228.78056 214.00000 0.00467
3132 34.31000 234.36871 207.00000 0.00483
3133 34.32000 240.74395 237.00000 0.00422
3134 34.33000 247.97360 255.00000 0.00392
3135 34.34000 256.10330 254.00000 0.00394
3136 34.35000 265.14375 229.00000 0.00437
3137 34.36000 275.05553 257.00000 0.00389
3138 34.37000 285.73226 269.00000 0.00372
3139 34.38000 296.98170 229.00000 0.00437
3140 34.39000 308.50485 259.00000 0.00386
3141 34.40000 319.87508 252.00000 0.00397
3142 34.41000 330.52413 262.00000 0.00382
3143 34.42000 339.74911 274.00000 0.00365
3144 34.43000 346.76062 277.00000 0.00361
3145 34.44000 350.79017 294.00000 0.00340
3146 34.45000 351.25404 286.00000 0.00350
3147 34.46000 347.92943 266.00000 0.00376
3148 34.47000 341.06191 278.00000 0.00360
3149 34.48000 331.33339 274.00000 0.00365
3150 34.49000 319.69192 251.00000 0.00398
3151 34.50000 307.12467 239.00000 0.00418
3152 34.51000 294.47393 241.00000 0.00415
3153 34.52000 282.34793 245.00000 0.00408
3154 34.53000 271.11795 247.00000 0.00405
3155 34.54000 260.96349 240.00000 0.00417
3156 34.55000 251.93057 249.00000 0.00402
3157 34.56000 243.98304 235.00000 0.00426
3158 34.57000 237.04026 228.00000 0.00439
3159 34.58000 231.00191 221.00000 0.00452
3160 34.59000 225.76286 227.00000 0.00441
3161 34.60000 221.22152 205.00000 0.00488
3162 34.61000 217.28420 204.00000 0.00490
3163 34.62000 213.86683 188.00000 0.00532
3164 34.63000 210.89541 208.00000 0.00481
3165 34.64000 208.30574 221.00000 0.00452
3166 34.65000 206.04268 231.00000 0.00433
3167 34.66000 204.05927 217.00000 0.00461
3168 34.67000 202.31577 203.00000 0.00493
3169 34.68000 200.77869 216.00000 0.00463
3170 34.69000 199.41989 208.00000 0.00481
3171 34.70000 198.21574 218.00000 0.00459
3172 34.71000 197.14629 220.00000 0.00455
3173 34.72000 196.19452 205.00000 0.00488
3174 34.73000 195.34468 191.00000 0.00524
3175 34.74000 194.58322 199.00000 0.00503
3176 34.75000 193.91740 200.00000 0.00500
3177 34.76000 193.32650 206.00000 0.00485
3178 34.77000 192.80333 205.00000 0.00488
3179 34.78000 192.34174 218.00000 0.00459
3180 34.79000 191.93645 211.00000 0.00474
3181 34.80000 191.58294 205.00000 0.00488
3182 34.81000 191.27731 206.00000 0.00485
3183 34.82000 191.01622 211.00000 0.00474
3184 34.83000 190.79681 201.00000 0.00498
3185 34.84000 190.61665 186.00000 0.00538
3186 34.85000 190.47367 204.00000 0.00490
3187 34.86000 190.36612 200.00000 0.00500
3188 34.87000 190.29258 205.00000 0.00488
3189 34.88000 190.25189 220.00000 0.00455
3190 34.89000 190.24313 216.00000 0.00463
3191 34.90000 190.26562 216.00000 0.00463
3192 34.91000 190.31891 214.00000 0.00467
3193 34.92000 190.40274 214.00000 0.00467
3194 34.93000 190.51706 213.00000 0.00469
3195 34.94000 190.66203 187.00000 0.00535
3196 34.95000 190.83799 222.00000 0.00450
3197 34.96000 191.04549 210.00000 0.00476
3198 34.97000 191.28528 227.00000 0.00441
3199 34.98000 191.55833 189.00000 0.00529
3200 34.99000 191.86585 204.00000 0.00490
3201 35.00000 192.20925 188.00000 0.00532
3202 35.01000 192.59025 213.00000 0.00469
3203 35.02000 193.01083 208.00000 0.00481
3204 35.03000 193.47329 209.00000 0.00478
3205 35.04000 193.98029 199.00000 0.00503
3206 35.05000 194.53487 238.00000 0.00420
3207 35.06000 195.14050 222.00000 0.00450
3208 35.07000 195.80114 223.00000 0.00448
3209 35.08000 196.52129 218.00000 0.00459
3210 35.09000 197.30605 220.00000 0.00455
3211 35.10000 198.16113 235.00000 0.00426
3212 35.11000 199.09298 186.00000 0.00538
3213 35.12000 200.10873 224.00000 0.00446
3214 35.13000 201.21629 225.00000 0.00444
3215 35.14000 202.42421 251.00000 0.00398
3216 35.15000 203.74168 232.00000 0.00431
3217 35.16000 205.17832 231.00000 0.00433
3218 35.17000 206.74404 236.00000 0.00424
3219 35.18000 208.44875 251.00000 0.00398
3220 35.19000 210.30197 209.00000 0.00478
3221 35.20000 212.31270 216.00000 0.00463
3222 35.21000 214.48907 229.00000 0.00437
3223 35.22000 216.83813 248.00000 0.00403
3224 35.23000 219.36583 209.00000 0.00478
3225 35.24000 222.07757 227.00000 0.00441
3226 35.25000 224.97967 225.00000 0.00444
3227 35.26000 228.08252 234.00000 0.00427
3228 35.27000 231.40445 221.00000 0.00452
3229 35.28000 234.97912 238.00000 0.00420
3230 35.29000 238.85934 224.00000 0.00446
3231 35.30000 243.11972 250.00000 0.00400
3232 35.31000 247.85545 252.00000 0.00397
3233 35.32000 253.17861 249.00000 0.00402
3234 35.33000 259.21462 278.00000 0.00360
3235 35.34000 266.10069 270.00000 0.00370
3236 35.35000 273.98662 286.00000 0.00350
3237 35.36000 283.03706 282.00000 0.00355
3238 35.37000 293.43385 310.00000 0.00323
3239 35.38000 305.37708 316.00000 0.00316
3240 35.39000 319.08351 283.00000 0.00353
3241 35.40000 334.78116 338.00000 0.00296
3242 35.41000 352.69829 343.00000 0.00292
3243 35.42000 373.04538 375.00000 0.00267
3244 35.43000 395.98747 416.00000 0.00240
3245 35.44000 421.61089 464.00000 0.00216
3246 35.45000 449.87840 509.00000 0.00196
3247 35.46000 480.57997 487.00000 0.00205
3248 35.47000 513.27809 511.00000 0.00196
3249 35.48000 547.24937 506.00000 0.00198
3250 35.49000 581.42661 555.00000 0.00180
3251 35.50000 614.35381 572.00000 0.00175
3252 35.51000 644.18212 600.00000 0.00167
3253 35.52000 668.75157 627.00000 0.00159
3254 35.53000 685.80936 606.00000 0.00165
3255 35.54000 693.38527 582.00000 0.00172
3256 35.55000 690.26410 619.00000 0.00162
3257 35.56000 676.38888 583.00000 0.00172
3258 35.57000 652.98667 622.00000 0.00161
3259 35.58000 622.31144 629.00000 0.00159
3260 35.59000 587.10405 577.00000 0.00173
3261 35.60000 550.01355 552.00000 0.00181
3262 35.61000 513.19455 491.00000 0.00204
3263 35.62000 478.15194 460.00000 0.00217
3264 35.63000 445.77842 394.00000 0.00254
3265 35.64000 416.48721 399.00000 0.00251
3266 35.65000 390.36224 342.00000 0.00292
3267 35.66000 367.28537 292.00000 0.00342
3268 35.67000 347.02887 290.00000 0.00345
3269 35.68000 329.31631 299.00000 0.00334
3270 35.69000 313.85962 265.00000 0.00377
3271 35.70000 300.38022 256.00000 0.00391
3272 35.71000 288.61987 232.00000 0.00431
3273 35.72000 278.34567 223.00000 0.00448
3274 35.73000 269.35132 234.00000 0.00427
3275 35.74000 261.45660 224.00000 0.00446
3276 35.75000 254.50565 215.00000 0.00465
3277 35.76000 248.36476 242.00000 0.00413
3278 35.77000 242.91997 207.00000 0.00483
3279 35.78000 238.07460 216.00000 0.00463
3280 35.79000 233.74686 188.00000 0.00532
3281 35.80000 229.86774 228.00000 0.00439
3282 35.81000 226.37896 191.00000 0.00524
3283 35.82000 223.23128 222.00000 0.00450
3284 35.83000 220.38298 181.00000 0.00552
3285 35.84000 217.79861 221.00000 0.00452
3286 35.85000 215.44793 206.00000 0.00485
3287 35.86000 213.30497 212.00000 0.00472
3288 35.87000 211.34742 211.00000 0.00474
3289 35.88000 209.55593 206.00000 0.00485
3290 35.89000 207.91369 219.00000 0.00457
3291 35.90000 206.40604 210.00000 0.00476
3292 35.91000 205.02013 203.00000 0.00493
3293 35.92000 203.74464 223.00000 0.00448
3294 35.93000 202.56961 216.00000 0.00463
3295 35.94000 201.48624 202.00000 0.00495
3296 35.95000 200.48669 215.00000 0.00465
3297 35.96000 199.56405 220.00000 0.00455
3298 35.97000 198.71212 216.00000 0.00463
3299 35.98000 197.92542 238.00000 0.00420
3300 35.99000 197.19904 188.00000 0.00532
3301 36.00000 196.52862 191.00000 0.00524
3302 36.01000 195.91026 212.00000 0.00472
3303 36.02000 195.34048 211.00000 0.00474
3304 36.03000 194.81618 199.00000 0.00503
3305 36.04000 194.33464 190.00000 0.00526
3306 36.05000 193.89361 175.00000 0.00571
3307 36.06000 193.49090 200.00000 0.00500
3308 36.07000 193.12302 223.00000 0.00448
3309 36.08000 192.78940 211.00000 0.00474
3310 36.09000 192.48852 196.00000 0.00510
3311 36.10000 192.21910 207.00000 0.00483
3312 36.11000 191.98001 216.00000 0.00463
3313 36.12000 191.77033 202.00000 0.00495
3314 36.13000 191.58930 194.00000 0.00515
3315 36.14000 191.43633 204.00000 0.00490
3316 36.15000 191.31099 192.00000 0.00521
3317 36.16000 191.21304 200.00000 0.00500
3318 36.17000 191.14239 187.00000 0.00535
3319 36.18000 191.09911 195.00000 0.00513
3320 36.19000 191.08346 217.00000 0.00461
3321 36.20000 191.09590 208.00000 0.00481
3322 36.21000 191.13707 190.00000 0.00526
3323 36.22000 191.20784 223.00000 0.00448
3324 36.23000 191.30930 206.00000 0.00485
3325 36.24000 191.44282 207.00000 0.00483
3326 36.25000 191.61004 197.00000 0.00508
3327 36.26000 191.81296 197.00000 0.00508
3328 36.27000 192.05392 211.00000 0.00474
3329 36.28000 192.33572 225.00000 0.00444
3330 36.29000 192.66167 201.00000 0.00498
3331 36.30000 193.03563 191.00000 0.00524
3332 36.31000 193.46220 210.00000 0.00476
3333 36.32000 193.94677 201.00000 0.00498
3334 36.33000 194.49571 200.00000 0.00500
3335 36.34000 195.11653 202.00000 0.00495
3336 36.35000 195.81812 216.00000 0.00463
3337 36.36000 196.61095 186.00000 0.00538
3338 36.37000 197.50738 219.00000 0.00457
3339 36.38000 198.52200 214.00000 0.00467
3340 36.39000 199.67189 210.00000 0.00476
3341 36.40000 200.97706 195.00000 0.00513
3342 36.41000 202.46076 205.00000 0.00488
3343 36.42000 204.14981 220.00000 0.00455
3344 36.43000 206.07485 215.00000 0.00465
3345 36.44000 208.27039 198.00000 0.00505
3346 36.45000 210.77457 201.00000 0.00498
3347 36.46000 213.62852 205.00000 0.00488
3348 36.47000 216.87490 212.00000 0.00472
3349 36.48000 220.55543 209.00000 0.00478
3350 36.49000 224.70707 215.00000 0.00465
3351 36.50000 229.35660 220.00000 0.00455
3352 36.51000 234.51342 204.00000 0.00490
3353 36.52000 240.16091 232.00000 0.00431
3354 36.53000 246.24691 244.00000 0.00410
3355 36.54000 252.66707 219.00000 0.00457
3356 36.55000 259.26551 208.00000 0.00481
3357 36.56000 265.81616 249.00000 0.00402
3358 36.57000 272.02037 269.00000 0.00372
3359 36.58000 277.51253 240.00000 0.00417
3360 36.59000 281.88414 256.00000 0.00391
3361 36.60000 284.73327 258.00000 0.00388
3362 36.61000 285.73816 269.00000 0.00372
3363 36.62000 284.73827 250.00000 0.00400
3364 36.63000 281.79108 254.00000 0.00394
3365 36.64000 277.17378 239.00000 0.00418
3366 36.65000 271.32243 233.00000 0.00429
3367 36.66000 264.73388 242.00000 0.00413
3368 36.67000 257.87143 241.00000 0.00415
3369 36.68000 251.10445 245.00000 0.00408
3370 36.69000 244.68844 244.00000 0.00410
3371 36.70000 238.77461 233.00000 0.00429
3372 36.71000 233.43315 235.00000 0.00426
3373 36.72000 228.67840 210.00000 0.00476
3374 36.73000 224.49009 198.00000 0.00505
3375 36.74000 220.82880 222.00000 0.00450
3376 36.75000 217.64634 205.00000 0.00488
3377 36.76000 214.89209 200.00000 0.00500
3378 36.77000 212.51679 223.00000 0.00448
3379 36.78000 210.47447 218.00000 0.00459
3380 36.79000 208.72338 215.00000 0.00465
3381 36.80000 207.22621 188.00000 0.00532
3382 36.81000 205.94957 211.00000 0.00474
3383 36.82000 204.85924 194.00000 0.00515
3384 36.83000 203.95251 213.00000 0.00469
3385 36.84000 203.19564 198.00000 0.00505
3386 36.85000 202.57140 229.00000 0.00437
3387 36.86000 202.06536 217.00000 0.00461
3388 36.87000 201.66554 215.00000 0.00465
3389 36.88000 201.36208 224.00000 0.00446
3390 36.89000 201.14694 238.00000 0.00420
3391 36.90000 201.01363 227.00000 0.00441
3392 36.91000 200.95704 206.00000 0.00485
3393 36.92000 200.97320 225.00000 0.00444
3394 36.93000 201.05921 230.00000 0.00435
3395 36.94000 201.21307 235.00000 0.00426
3396 36.95000 201.43360 221.00000 0.00452
3397 36.96000 201.72042 184.00000 0.00543
3398 36.97000 202.07389 232.00000 0.00431
3399 36.98000 202.49508 230.00000 0.00435
3400 36.99000 202.98578 222.00000 0.00450
3401 37.00000 203.54854 211.00000 0.00474
3402 37.01000 204.18667 193.00000 0.00518
3403 37.02000 204.90430 224.00000 0.00446
3404 37.03000 205.70649 206.00000 0.00485
3405 37.04000 206.59928 194.00000 0.00515
3406 37.05000 207.58985 228.00000 0.00439
3407 37.06000 208.68666 235.00000 0.00426
3408 37.07000 209.89964 222.00000 0.00450
3409 37.08000 211.24044 197.00000 0.00508
3410 37.09000 212.72273 210.00000 0.00476
3411 37.10000 214.36252 219.00000 0.00457
3412 37.11000 216.17861 249.00000 0.00402
3413 37.12000 218.19307 226.00000 0.00442
3414 37.13000 220.43185 206.00000 0.00485
3415 37.14000 222.92545 225.00000 0.00444
3416 37.15000 225.70968 237.00000 0.00422
3417 37.16000 228.82654 224.00000 0.00446
3418 37.17000 232.32514 257.00000 0.00389
3419 37.18000 236.26270 237.00000 0.00422
3420 37.19000 240.70551 223.00000 0.00448
3421 37.20000 245.72984 246.00000 0.00407
3422 37.21000 251.42261 240.00000 0.00417
3423 37.22000 257.88167 289.00000 0.00346
3424 37.23000 265.21536 249.00000 0.00402
3425 37.24000 273.54090 289.00000 0.00346
3426 37.25000 282.98094 271.00000 0.00369
3427 37.26000 293.65738 301.00000 0.00332
3428 37.27000 305.68168 294.00000 0.00340
3429 37.28000 319.14056 338.00000 0.00296
3430 37.29000 334.07651 358.00000 0.00279
3431 37.30000 350.46430 391.00000 0.00256
3432 37.31000 368.17472 395.00000 0.00253
3433 37.32000 386.95452 421.00000 0.00238
3434 37.33000 406.38678 405.00000 0.00247
3435 37.34000 425.86292 451.00000 0.00222
3436 37.35000 444.56658 418.00000 0.00239
3437 37.36000 461.48323 485.00000 0.00206
3438 37.37000 475.45615 516.00000 0.00194
3439 37.38000 485.30845 509.00000 0.00196
3440 37.39000 490.03362 491.00000 0.00204
3441 37.40000 489.02053 453.00000 0.00221
3442 37.41000 482.23698 499.00000 0.00200
3443 37.42000 470.28394 496.00000 0.00202
3444 37.43000 454.27838 528.00000 0.00189
3445 37.44000 435.60674 456.00000 0.00219
3446 37.45000 415.65153 456.00000 0.00219
3447 37.46000 395.58643 384.00000 0.00260
3448 37.47000 376.28035 413.00000 0.00242
3449 37.48000 358.29510 345.00000 0.00290
3450 37.49000 341.93698 344.00000 0.00291
3451 37.50000 327.32562 297.00000 0.00337
3452 37.51000 314.45759 296.00000 0.00338
3453 37.52000 303.25579 277.00000 0.00361
3454 37.53000 293.60352 223.00000 0.00448
3455 37.54000 285.36604 274.00000 0.00365
3456 37.55000 278.40258 226.00000 0.00442
3457 37.56000 272.57218 232.00000 0.00431
3458 37.57000 267.73517 261.00000 0.00383
3459 37.58000 263.75233 246.00000 0.00407
3460 37.59000 260.48258 207.00000 0.00483
3461 37.60000 257.78046 211.00000 0.00474
3462 37.61000 255.49439 208.00000 0.00481
3463 37.62000 253.46723 225.00000 0.00444
3464 37.63000 251.54123 252.00000 0.00397
3465 37.64000 249.56846 253.00000 0.00395
3466 37.65000 247.42678 221.00000 0.00452
3467 37.66000 245.03746 242.00000 0.00413
3468 37.67000 242.37776 221.00000 0.00452
3469 37.68000 239.48171 231.00000 0.00433
3470 37.69000 236.42688 229.00000 0.00437
3471 37.70000 233.31217 231.00000 0.00433
3472 37.71000 230.23509 218.00000 0.00459
3473 37.72000 227.27564 214.00000 0.00467
3474 37.73000 224.48975 201.00000 0.00498
3475 37.74000 221.90981 228.00000 0.00439
3476 37.75000 219.54963 204.00000 0.00490
3477 37.76000 217.41527 219.00000 0.00457
3478 37.77000 215.47694 206.00000 0.00485
3479 37.78000 213.73065 208.00000 0.00481
3480 37.79000 212.16124 211.00000 0.00474
3481 37.80000 210.75172 197.00000 0.00508
3482 37.81000 209.48560 215.00000 0.00465
3483 37.82000 208.34743 210.00000 0.00476
3484 37.83000 207.32304 208.00000 0.00481
3485 37.84000 206.39967 220.00000 0.00455
3486 37.85000 205.56594 196.00000 0.00510
3487 37.86000 204.81191 208.00000 0.00481
3488 37.87000 204.12879 217.00000 0.00461
3489 37.88000 203.50887 189.00000 0.00529
3490 37.89000 202.94544 193.00000 0.00518
3491 37.90000 202.43296 211.00000 0.00474
3492 37.91000 201.96910 183.00000 0.00546
3493 37.92000 201.54297 213.00000 0.00469
3494 37.93000 201.14931 208.00000 0.00481
3495 37.94000 200.78842 201.00000 0.00498
3496 37.95000 200.45720 234.00000 0.00427
3497 37.96000 200.15292 211.00000 0.00474
3498 37.97000 199.87309 222.00000 0.00450
3499 37.98000 199.61541 215.00000 0.00465
3500 37.99000 199.37759 222.00000 0.00450
3501 38.00000 199.15706 201.00000 0.00498
3502 38.01000 198.94895 190.00000 0.00526
3503 38.02000 198.74766 205.00000 0.00488
3504 38.03000 198.58556 226.00000 0.00442
3505 38.04000 198.43801 199.00000 0.00503
3506 38.05000 198.30402 190.00000 0.00526
3507 38.06000 198.18272 192.00000 0.00521
3508 38.07000 198.07329 214.00000 0.00467
3509 38.08000 197.97501 234.00000 0.00427
3510 38.09000 197.88720 215.00000 0.00465
3511 38.10000 197.80924 194.00000 0.00515
3512 38.11000 197.74057 214.00000 0.00467
3513 38.12000 197.68068 191.00000 0.00524
3514 38.13000 197.62909 189.00000 0.00529
3515 38.14000 197.58536 213.00000 0.00469
3516 38.15000 197.54909 206.00000 0.00485
3517 38.16000 197.51992 202.00000 0.00495
3518 38.17000 197.49749 213.00000 0.00469
3519 38.18000 197.48150 212.00000 0.00472
3520 38.19000 197.47165 202.00000 0.00495
3521 38.20000 197.46767 221.00000 0.00452
3522 38.21000 197.46932 193.00000 0.00518
3523 38.22000 197.47637 213.00000 0.00469
3524 38.23000 197.48860 193.00000 0.00518
3525 38.24000 197.50583 204.00000 0.00490
3526 38.25000 197.52787 191.00000 0.00524
3527 38.26000 197.55456 219.00000 0.00457
3528 38.27000 197.58574 185.00000 0.00541
3529 38.28000 197.62127 215.00000 0.00465
3530 38.29000 197.66100 191.00000 0.00524
3531 38.30000 197.70481 215.00000 0.00465
3532 38.31000 197.75258 179.00000 0.00559
3533 38.32000 197.80422 205.00000 0.00488
3534 38.33000 197.85963 193.00000 0.00518
3535 38.34000 197.91873 189.00000 0.00529
3536 38.35000 197.98144 181.00000 0.00552
3537 38.36000 198.04768 203.00000 0.00493
3538 38.37000 198.11736 215.00000 0.00465
3539 38.38000 198.19038 208.00000 0.00481
3540 38.39000 198.26657 236.00000 0.00424
3541 38.40000 198.34544 207.00000 0.00483
3542 38.41000 198.42526 185.00000 0.00541
3543 38.42000 198.51339 214.00000 0.00467
3544 38.43000 198.60510 245.00000 0.00408
3545 38.44000 198.70040 211.00000 0.00474
3546 38.45000 198.79936 205.00000 0.00488
3547 38.46000 198.90207 174.00000 0.00575
3548 38.47000 199.00863 209.00000 0.00478
3549 38.48000 199.11917 197.00000 0.00508
3550 38.49000 199.23383 186.00000 0.00538
3551 38.50000 199.35284 170.00000 0.00588
3552 38.51000 199.47685 192.00000 0.00521
3553 38.52000 199.60524 186.00000 0.00538
3554 38.53000 199.73710 197.00000 0.00508
3555 38.54000 199.87375 185.00000 0.00541
3556 38.55000 200.01534 193.00000 0.00518
3557 38.56000 200.16200 204.00000 0.00490
3558 38.57000 200.31380 220.00000 0.00455
3559 38.58000 200.47076 207.00000 0.00483
3560 38.59000 200.63275 187.00000 0.00535
3561 38.60000 200.79952 218.00000 0.00459
3562 38.61000 200.97063 222.00000 0.00450
3563 38.62000 201.14546 172.00000 0.00581
3564 38.63000 201.32318 192.00000 0.00521
3565 38.64000 201.50280 204.00000 0.00490
3566 38.65000 201.68329 187.00000 0.00535
3567 38.66000 201.86368 213.00000 0.00469
3568 38.67000 202.04334 213.00000 0.00469
3569 38.68000 202.22212 210.00000 0.00476
3570 38.69000 202.40053 187.00000 0.00535
3571 38.70000 202.57963 183.00000 0.00546
3572 38.71000 202.76091 193.00000 0.00518
3573 38.72000 202.94605 206.00000 0.00485
3574 38.73000 203.13662 198.00000 0.00505
3575 38.74000 203.33398 213.00000 0.00469
3576 38.75000 203.53923 207.00000 0.00483
3577 38.76000 203.75320 188.00000 0.00532
3578 38.77000 203.97652 209.00000 0.00478
3579 38.78000 204.20969 210.00000 0.00476
3580 38.79000 204.45315 213.00000 0.00469
3581 38.80000 204.70728 209.00000 0.00478
3582 38.81000 204.97251 214.00000 0.00467
3583 38.82000 205.24927 199.00000 0.00503
3584 38.83000 205.53805 205.00000 0.00488
3585 38.84000 205.83941 202.00000 0.00495
3586 38.85000 206.15395 231.00000 0.00433
3587 38.86000 206.48238 208.00000 0.00481
3588 38.87000 206.82546 199.00000 0.00503
3589 38.88000 207.18408 232.00000 0.00431
3590 38.89000 207.55920 215.00000 0.00465
3591 38.90000 207.95191 191.00000 0.00524
3592 38.91000 208.36347 208.00000 0.00481
3593 38.92000 208.79528 205.00000 0.00488
3594 38.93000 209.24886 220.00000 0.00455
3595 38.94000 209.72594 227.00000 0.00441
3596 38.95000 210.22863 241.00000 0.00415
3597 38.96000 210.76083 215.00000 0.00465
3598 38.97000 211.31998 231.00000 0.00433
3599 38.98000 211.90897 224.00000 0.00446
3600 38.99000 212.53228 206.00000 0.00485
3601 39.00000 213.19293 205.00000 0.00488
3602 39.01000 213.89429 218.00000 0.00459
3603 39.02000 214.64014 207.00000 0.00483
3604 39.03000 215.43471 220.00000 0.00455
3605 39.04000 216.28274 223.00000 0.00448
3606 39.05000 217.18959 219.00000 0.00457
3607 39.06000 218.16132 209.00000 0.00478
3608 39.07000 219.20479 229.00000 0.00437
3609 39.08000 220.32784 212.00000 0.00472
3610 39.09000 221.53941 210.00000 0.00476
3611 39.10000 222.84975 227.00000 0.00441
3612 39.11000 224.27082 209.00000 0.00478
3613 39.12000 225.81575 217.00000 0.00461
3614 39.13000 227.50047 233.00000 0.00429
3615 39.14000 229.34328 217.00000 0.00461
3616 39.15000 231.36539 215.00000 0.00465
3617 39.16000 233.59142 215.00000 0.00465
3618 39.17000 236.04996 214.00000 0.00467
3619 39.18000 238.77417 241.00000 0.00415
3620 39.19000 241.80240 218.00000 0.00459
3621 39.20000 245.17884 215.00000 0.00465
3622 39.21000 248.95414 207.00000 0.00483
3623 39.22000 253.18600 245.00000 0.00408
3624 39.23000 257.93955 222.00000 0.00450
3625 39.24000 263.28747 231.00000 0.00433
3626 39.25000 269.30971 266.00000 0.00376
3627 39.26000 276.09232 266.00000 0.00376
3628 39.27000 283.72522 272.00000 0.00368
3629 39.28000 292.29818 283.00000 0.00353
3630 39.29000 301.89434 296.00000 0.00338
3631 39.30000 312.58054 303.00000 0.00330
3632 39.31000 324.39364 316.00000 0.00316
3633 39.32000 337.32265 320.00000 0.00312
3634 39.33000 351.28672 336.00000 0.00298
3635 39.34000 366.11041 334.00000 0.00299
3636 39.35000 381.49834 352.00000 0.00284
3637 39.36000 397.01337 360.00000 0.00278
3638 39.37000 412.06420 389.00000 0.00257
3639 39.38000 425.91196 401.00000 0.00249
3640 39.39000 437.70764 423.00000 0.00236
3641 39.40000 446.57184 394.00000 0.00254
3642 39.41000 451.71856 399.00000 0.00251
3643 39.42000 452.60526 400.00000 0.00250
3644 39.43000 449.06638 411.00000 0.00243
3645 39.44000 441.37674 408.00000 0.00245
3646 39.45000 430.20932 439.00000 0.00228
3647 39.46000 416.49738 428.00000 0.00234
3648 39.47000 401.25341 407.00000 0.00246
3649 39.48000 385.40862 357.00000 0.00280
3650 39.49000 369.71315 354.00000 0.00282
3651 39.50000 354.70270 311.00000 0.00322
3652 39.51000 340.71351 307.00000 0.00326
3653 39.52000 327.92153 299.00000 0.00334
3654 39.53000 316.38692 309.00000 0.00324
3655 39.54000 306.09322 279.00000 0.00358
3656 39.55000 296.97752 291.00000 0.00344
3657 39.56000 288.95153 301.00000 0.00332
3658 39.57000 281.91530 300.00000 0.00333
3659 39.58000 275.76547 239.00000 0.00418
3660 39.59000 270.39985 250.00000 0.00400
3661 39.60000 265.71964 267.00000 0.00375
3662 39.61000 261.63031 248.00000 0.00403
3663 39.62000 258.04186 224.00000 0.00446
3664 39.63000 254.86912 238.00000 0.00420
3665 39.64000 252.03263 229.00000 0.00437
3666 39.65000 249.46039 210.00000 0.00476
3667 39.66000 247.09057 207.00000 0.00483
3668 39.67000 244.87446 222.00000 0.00450
3669 39.68000 242.77867 232.00000 0.00431
3670 39.69000 240.78529 205.00000 0.00488
3671 39.70000 238.88992 209.00000 0.00478
3672 39.71000 237.09383 240.00000 0.00417
3673 39.72000 235.40511 232.00000 0.00431
3674 39.73000 233.83033 225.00000 0.00444
3675 39.74000 232.37324 235.00000 0.00426
3676 39.75000 231.03411 215.00000 0.00465
3677 39.76000 229.81007 217.00000 0.00461
3678 39.77000 228.69588 237.00000 0.00422
3679 39.78000 227.68483 221.00000 0.00452
3680 39.79000 226.76947 233.00000 0.00429
3681 39.80000 225.94221 259.00000 0.00386
3682 39.81000 225.19559 234.00000 0.00427
3683 39.82000 224.52255 232.00000 0.00431
3684 39.83000 223.91659 244.00000 0.00410
3685 39.84000 223.37174 252.00000 0.00397
3686 39.85000 222.88262 254.00000 0.00394
3687 39.86000 222.44440 215.00000 0.00465
3688 39.87000 222.05274 225.00000 0.00444
3689 39.88000 221.70377 214.00000 0.00467
3690 39.89000 221.39406 227.00000 0.00441
3691 39.90000 221.12051 218.00000 0.00459
3692 39.91000 220.88034 216.00000 0.00463
3693 39.92000 220.67083 216.00000 0.00463
3694 39.93000 220.48797 213.00000 0.00469
3695 39.94000 220.33361 236.00000 0.00424
3696 39.95000 220.21024 263.00000 0.00380
3697 39.96000 220.11177 210.00000 0.00476
3698 39.97000 220.03706 210.00000 0.00476
3699 39.98000 219.98515 224.00000 0.00446
3700 39.99000 219.95525 210.00000 0.00476
3701 40.00000 219.94670 207.00000 0.00483
3702 40.01000 219.95896 216.00000 0.00463
3703 40.02000 219.99164 221.00000 0.00452
3704 40.03000 220.04445 225.00000 0.00444
3705 40.04000 220.11724 227.00000 0.00441
3706 40.05000 220.20994 228.00000 0.00439
3707 40.06000 220.32260 242.00000 0.00413
3708 40.07000 220.45538 263.00000 0.00380
3709 40.08000 220.60856 227.00000 0.00441
3710 40.09000 220.78251 216.00000 0.00463
3711 40.10000 220.97773 223.00000 0.00448
3712 40.11000 221.19484 229.00000 0.00437
3713 40.12000 221.43459 227.00000 0.00441
3714 40.13000 221.69788 213.00000 0.00469
3715 40.14000 221.98573 209.00000 0.00478
3716 40.15000 222.29910 192.00000 0.00521
3717 40.16000 222.63948 225.00000 0.00444
3718 40.17000 223.00839 242.00000 0.00413
3719 40.18000 223.40754 201.00000 0.00498
3720 40.19000 223.83888 196.00000 0.00510
3721 40.20000 224.30458 244.00000 0.00410
3722 40.21000 224.80711 217.00000 0.00461
3723 40.22000 225.34924 222.00000 0.00450
3724 40.23000 225.93407 228.00000 0.00439
3725 40.24000 226.56512 232.00000 0.00431
3726 40.25000 227.24635 242.00000 0.00413
3727 40.26000 227.98222 222.00000 0.00450
3728 40.27000 228.77780 241.00000 0.00415
3729 40.28000 229.63890 221.00000 0.00452
3730 40.29000 230.57179 230.00000 0.00435
3731 40.30000 231.58404 239.00000 0.00418
3732 40.31000 232.68416 226.00000 0.00442
3733 40.32000 233.88189 230.00000 0.00435
3734 40.33000 235.18846 236.00000 0.00424
3735 40.34000 236.61678 229.00000 0.00437
3736 40.35000 238.18180 243.00000 0.00412
3737 40.36000 239.90079 228.00000 0.00439
3738 40.37000 241.79373 254.00000 0.00394
3739 40.38000 243.88377 203.00000 0.00493
3740 40.39000 246.19767 263.00000 0.00380
3741 40.40000 248.76630 225.00000 0.00444
3742 40.41000 251.62519 256.00000 0.00391
3743 40.42000 254.81506 253.00000 0.00395
3744 40.43000 258.38235 265.00000 0.00377
3745 40.44000 262.37963 234.00000 0.00427
3746 40.45000 266.86595 280.00000 0.00357
3747 40.46000 271.90688 254.00000 0.00394
3748 40.47000 277.57416 255.00000 0.00392
3749 40.48000 283.94470 283.00000 0.00353
3750 40.49000 291.09861 300.00000 0.00333
3751 40.50000 299.11564 296.00000 0.00338
3752 40.51000 308.06959 303.00000 0.00330
3753 40.52000 318.01990 320.00000 0.00312
3754 40.53000 328.99971 376.00000 0.00266
3755 40.54000 340.99994 376.00000 0.00266
3756 40.55000 353.94966 406.00000 0.00246
3757 40.56000 367.69350 418.00000 0.00239
3758 40.57000 381.96855 439.00000 0.00228
3759 40.58000 396.38437 439.00000 0.00228
3760 40.59000 410.41182 451.00000 0.00222
3761 40.60000 423.38904 474.00000 0.00211
3762 40.61000 434.55430 487.00000 0.00205
3763 40.62000 443.11454 459.00000 0.00218
3764 40.63000 448.35081 484.00000 0.00207
3765 40.64000 449.74601 506.00000 0.00198
3766 40.65000 447.10147 474.00000 0.00211
3767 40.66000 440.59902 520.00000 0.00192
3768 40.67000 430.77754 490.00000 0.00204
3769 40.68000 418.42723 540.00000 0.00185
3770 40.69000 404.43967 500.00000 0.00200
3771 40.70000 389.66532 431.00000 0.00232
3772 40.71000 374.81586 414.00000 0.00242
3773 40.72000 360.42202 388.00000 0.00258
3774 40.73000 346.83601 347.00000 0.00288
3775 40.74000 334.25959 372.00000 0.00269
3776 40.75000 322.78100 309.00000 0.00324
3777 40.76000 312.41005 310.00000 0.00323
3778 40.77000 303.10673 273.00000 0.00366
3779 40.78000 294.80223 269.00000 0.00372
3780 40.79000 287.41350 227.00000 0.00441
3781 40.80000 280.85267 232.00000 0.00431
3782 40.81000 275.03280 264.00000 0.00379
3783 40.82000 269.87134 264.00000 0.00379
3784 40.83000 265.29184 260.00000 0.00385
3785 40.84000 261.22479 220.00000 0.00455
3786 40.85000 257.60784 257.00000 0.00389
3787 40.86000 254.38558 235.00000 0.00426
3788 40.87000 251.50869 254.00000 0.00394
3789 40.88000 248.93462 228.00000 0.00439
3790 40.89000 246.62603 228.00000 0.00439
3791 40.90000 244.55052 196.00000 0.00510
3792 40.91000 242.68005 223.00000 0.00448
3793 40.92000 240.99041 193.00000 0.00518
3794 40.93000 239.46067 225.00000 0.00444
3795 40.94000 238.07279 228.00000 0.00439
3796 40.95000 236.81128 230.00000 0.00435
3797 40.96000 235.66276 232.00000 0.00431
3798 40.97000 234.61568 229.00000 0.00437
3799 40.98000 233.66002 219.00000 0.00457
3800 40.99000 232.78711 235.00000 0.00426
3801 41.00000 231.98936 216.00000 0.00463
3802 41.01000 231.26011 219.00000 0.00457
3803 41.02000 230.59343 218.00000 0.00459
3804 41.03000 229.98361 227.00000 0.00441
3805 41.04000 229.42183 218.00000 0.00459
3806 41.05000 228.91399 189.00000 0.00529
3807 41.06000 228.46361 238.00000 0.00420
3808 41.07000 228.05884 247.00000 0.00405
3809 41.08000 227.69770 192.00000 0.00521
3810 41.09000 227.37869 218.00000 0.00459
3811 41.10000 227.10077 222.00000 0.00450
3812 41.11000 226.86337 239.00000 0.00418
3813 41.12000 226.66635 205.00000 0.00488
3814 41.13000 226.51007 196.00000 0.00510
3815 41.14000 226.39534 254.00000 0.00394
3816 41.15000 226.32348 190.00000 0.00526
3817 41.16000 226.29628 240.00000 0.00417
3818 41.17000 226.31604 196.00000 0.00510
3819 41.18000 226.38553 229.00000 0.00437
3820 41.19000 226.50797 239.00000 0.00418
3821 41.20000 226.68691 239.00000 0.00418
3822 41.21000 226.92616 235.00000 0.00426
3823 41.22000 227.22945 225.00000 0.00444
3824 41.23000 227.60020 235.00000 0.00426
3825 41.24000 228.04099 227.00000 0.00441
3826 41.25000 228.55269 222.00000 0.00450
3827 41.26000 229.13359 219.00000 0.00457
3828 41.27000 229.77829 222.00000 0.00450
3829 41.28000 230.47747 240.00000 0.00417
3830 41.29000 231.21129 230.00000 0.00435
3831 41.30000 231.95133 225.00000 0.00444
3832 41.31000 232.66797 243.00000 0.00412
3833 41.32000 233.32066 241.00000 0.00415
3834 41.33000 233.86370 226.00000 0.00442
3835 41.34000 234.25070 223.00000 0.00448
3836 41.35000 234.44095 242.00000 0.00413
3837 41.36000 234.40675 231.00000 0.00433
3838 41.37000 234.13954 245.00000 0.00408
3839 41.38000 233.65275 224.00000 0.00446
3840 41.39000 232.97964 258.00000 0.00388
3841 41.40000 232.16686 227.00000 0.00441
3842 41.41000 231.26590 227.00000 0.00441
3843 41.42000 230.32533 233.00000 0.00429
3844 41.43000 229.38553 229.00000 0.00437
3845 41.44000 228.47656 214.00000 0.00467
3846 41.45000 227.61837 230.00000 0.00435
3847 41.46000 226.82242 239.00000 0.00418
3848 41.47000 226.09371 207.00000 0.00483
3849 41.48000 225.43280 227.00000 0.00441
3850 41.49000 224.83736 197.00000 0.00508
3851 41.50000 224.30339 217.00000 0.00461
3852 41.51000 223.82605 202.00000 0.00495
3853 41.52000 223.40018 218.00000 0.00459
3854 41.53000 223.02067 233.00000 0.00429
3855 41.54000 222.68263 240.00000 0.00417
3856 41.55000 222.38153 207.00000 0.00483
3857 41.56000 222.11323 244.00000 0.00410
3858 41.57000 221.87397 232.00000 0.00431
3859 41.58000 221.66044 219.00000 0.00457
3860 41.59000 221.46966 223.00000 0.00448
3861 41.60000 221.29904 219.00000 0.00457
3862 41.61000 221.14629 229.00000 0.00437
3863 41.62000 221.00943 230.00000 0.00435
3864 41.63000 220.88671 215.00000 0.00465
3865 41.64000 220.77663 212.00000 0.00472
3866 41.65000 220.67789 225.00000 0.00444
3867 41.66000 220.58934 204.00000 0.00490
3868 41.67000 220.51002 233.00000 0.00429
3869 41.68000 220.43907 223.00000 0.00448
3870 41.69000 220.37574 204.00000 0.00490
3871 41.70000 220.31938 227.00000 0.00441
3872 41.71000 220.26944 223.00000 0.00448
3873 41.72000 220.22541 214.00000 0.00467
3874 41.73000 220.18687 201.00000 0.00498
3875 41.74000 220.15341 236.00000 0.00424
3876 41.75000 220.12472 244.00000 0.00410
3877 41.76000 220.10048 212.00000 0.00472
3878 41.77000 220.08044 210.00000 0.00476
3879 41.78000 220.06435 212.00000 0.00472
3880 41.79000 220.05201 208.00000 0.00481
3881 41.80000 220.04323 222.00000 0.00450
3882 41.81000 220.03785 227.00000 0.00441
3883 41.82000 220.03573 231.00000 0.00433
3884 41.83000 220.03673 204.00000 0.00490
3885 41.84000 220.04075 218.00000 0.00459
3886 41.85000 220.04768 223.00000 0.00448
3887 41.86000 220.05745 199.00000 0.00503
3888 41.87000 220.06996 243.00000 0.00412
3889 41.88000 220.08518 233.00000 0.00429
3890 41.89000 220.10303 225.00000 0.00444
3891 41.90000 220.12348 215.00000 0.00465
3892 41.91000 220.14650 221.00000 0.00452
3893 41.92000 220.17205 224.00000 0.00446
3894 41.93000 220.20013 205.00000 0.00488
3895 41.94000 220.23072 210.00000 0.00476
3896 41.95000 220.26385 218.00000 0.00459
3897 41.96000 220.29951 218.00000 0.00459
3898 41.97000 220.33773 220.00000 0.00455
3899 41.98000 220.37859 226.00000 0.00442
3900 41.99000 220.42230 254.00000 0.00394
3901 42.00000 220.46820 215.00000 0.00465
3902 42.01000 220.51676 221.00000 0.00452
3903 42.02000 220.56804 212.00000 0.00472
3904 42.03000 220.62208 216.00000 0.00463
3905 42.04000 220.67897 212.00000 0.00472
3906 42.05000 220.73876 244.00000 0.00410
3907 42.06000 220.80156 249.00000 0.00402
3908 42.07000 220.86744 206.00000 0.00485
3909 42.08000 220.93653 277.00000 0.00361
3910 42.09000 221.00894 215.00000 0.00465
3911 42.10000 221.08479 235.00000 0.00426
3912 42.11000 221.16423 237.00000 0.00422
3913 42.12000 221.24741 227.00000 0.00441
3914 42.13000 221.33452 218.00000 0.00459
3915 42.14000 221.42574 239.00000 0.00418
3916 42.15000 221.52128 226.00000 0.00442
3917 42.16000 221.62137 201.00000 0.00498
3918 42.17000 221.72629 221.00000 0.00452
3919 42.18000 221.83630 242.00000 0.00413
3920 42.19000 221.95174 220.00000 0.00455
3921 42.20000 222.07296 211.00000 0.00474
3922 42.21000 222.20037 209.00000 0.00478
3923 42.22000 222.33440 217.00000 0.00461
3924 42.23000 222.47558 255.00000 0.00392
3925 42.24000 222.62446 262.00000 0.00382
3926 42.25000 222.78169 235.00000 0.00426
3927 42.26000 222.94800 226.00000 0.00442
3928 42.27000 223.12422 209.00000 0.00478
3929 42.28000 223.31128 235.00000 0.00426
3930 42.29000 223.51023 195.00000 0.00513
3931 42.30000 223.72227 237.00000 0.00422
3932 42.31000 223.94873 215.00000 0.00465
3933 42.32000 224.19113 229.00000 0.00437
3934 42.33000 224.45114 215.00000 0.00465
3935 42.34000 224.73062 222.00000 0.00450
3936 42.35000 225.03162 214.00000 0.00467
3937 42.36000 225.35641 248.00000 0.00403
3938 42.37000 225.70754 249.00000 0.00402
3939 42.38000 226.08761 258.00000 0.00388
3940 42.39000 226.49932 229.00000 0.00437
3941 42.40000 226.94572 230.00000 0.00435
3942 42.41000 227.43223 255.00000 0.00392
3943 42.42000 227.94835 258.00000 0.00388
3944 42.43000 228.50157 260.00000 0.00385
3945 42.44000 229.09062 241.00000 0.00415
3946 42.45000 229.71203 246.00000 0.00407
3947 42.46000 230.35949 267.00000 0.00375
3948 42.47000 231.02326 260.00000 0.00385
3949 42.48000 231.68978 256.00000 0.00391
3950 42.49000 232.34175 242.00000 0.00413
3951 42.50000 232.95895 252.00000 0.00397
3952 42.51000 233.52004 250.00000 0.00400
3953 42.52000 234.00477 231.00000 0.00433
3954 42.53000 234.39759 277.00000 0.00361
3955 42.54000 234.69152 262.00000 0.00382
3956 42.55000 234.89244 258.00000 0.00388
3957 42.56000 234.99415 227.00000 0.00441
3958 42.57000 235.02761 263.00000 0.00380
3959 42.58000 235.01725 270.00000 0.00370
3960 42.59000 234.98832 254.00000 0.00394
3961 42.60000 234.96375 260.00000 0.00385
3962 42.61000 234.96233 265.00000 0.00377
3963 42.62000 234.99808 284.00000 0.00352
3964 42.63000 235.08067 234.00000 0.00427
3965 42.64000 235.21619 243.00000 0.00412
3966 42.65000 235.40810 247.00000 0.00405
3967 42.66000 235.65809 273.00000 0.00366
3968 42.67000 235.96679 265.00000 0.00377
3969 42.68000 236.33426 259.00000 0.00386
3970 42.69000 236.76038 270.00000 0.00370
3971 42.70000 237.24507 263.00000 0.00380
3972 42.71000 237.78851 253.00000 0.00395
3973 42.72000 238.39117 233.00000 0.00429
3974 42.73000 239.05389 268.00000 0.00373
3975 42.74000 239.77801 272.00000 0.00368
3976 42.75000 240.56537 233.00000 0.00429
3977 42.76000 241.41831 242.00000 0.00413
3978 42.77000 242.33974 234.00000 0.00427
3979 42.78000 243.33314 246.00000 0.00407
3980 42.79000 244.40263 246.00000 0.00407
3981 42.80000 245.55294 262.00000 0.00382
3982 42.81000 246.78947 282.00000 0.00355
3983 42.82000 248.11820 266.00000 0.00376
3984 42.83000 249.54400 242.00000 0.00413
3985 42.84000 251.08116 242.00000 0.00413
3986 42.85000 252.73956 261.00000 0.00383
3987 42.86000 254.52666 228.00000 0.00439
3988 42.87000 256.45456 273.00000 0.00366
3989 42.88000 258.53702 254.00000 0.00394
3990 42.89000 260.78970 265.00000 0.00377
3991 42.90000 263.23044 252.00000 0.00397
3992 42.91000 265.87963 260.00000 0.00385
3993 42.92000 268.76055 255.00000 0.00392
3994 42.93000 271.89986 316.00000 0.00316
3995 42.94000 275.32810 291.00000 0.00344
3996 42.95000 279.08023 285.00000 0.00351
3997 42.96000 283.19629 286.00000 0.00350
3998 42.97000 287.72203 294.00000 0.00340
3999 42.98000 292.70969 304.00000 0.00329
4000 42.99000 298.21869 290.00000 0.00345
4001 43.00000 304.31645 304.00000 0.00329
4002 43.01000 311.07903 278.00000 0.00360
4003 43.02000 318.59181 301.00000 0.00332
4004 43.03000 326.94990 322.00000 0.00311
4005 43.04000 336.25826 326.00000 0.00307
4006 43.05000 346.63130 287.00000 0.00348
4007 43.06000 358.19166 351.00000 0.00285
4008 43.07000 371.06765 378.00000 0.00265
4009 43.08000 385.38872 359.00000 0.00279
4010 43.09000 401.27850 411.00000 0.00243
4011 43.10000 418.84530 421.00000 0.00238
4012 43.11000 438.15621 468.00000 0.00214
4013 43.12000 459.23353 439.00000 0.00228
4014 43.13000 482.01312 482.00000 0.00207
4015 43.14000 506.31442 525.00000 0.00190
4016 43.15000 531.80377 485.00000 0.00206
4017 43.16000 557.95987 526.00000 0.00190
4018 43.17000 584.04957 541.00000 0.00185
4019 43.18000 609.12527 613.00000 0.00163
4020 43.19000 632.05755 583.00000 0.00172
4021 43.20000 651.61545 605.00000 0.00165
4022 43.21000 666.59966 650.00000 0.00154
4023 43.22000 676.01735 673.00000 0.00149
4024 43.23000 679.26522 693.00000 0.00144
4025 43.24000 676.26827 702.00000 0.00142
4026 43.25000 667.52313 662.00000 0.00151
4027 43.26000 654.02277 645.00000 0.00155
4028 43.27000 637.08426 670.00000 0.00149
4029 43.28000 618.13635 686.00000 0.00146
4030 43.29000 598.52947 646.00000 0.00155
4031 43.30000 579.40819 615.00000 0.00163
4032 43.31000 561.65470 570.00000 0.00175
4033 43.32000 545.88801 554.00000 0.00181
4034 43.33000 532.49508 558.00000 0.00179
4035 43.34000 521.67230 520.00000 0.00192
4036 43.35000 513.46324 495.00000 0.00202
4037 43.36000 507.78558 513.00000 0.00195
4038 43.37000 504.44581 510.00000 0.00196
4039 43.38000 503.14359 489.00000 0.00204
4040 43.39000 503.47036 469.00000 0.00213
4041 43.40000 504.90817 510.00000 0.00196
4042 43.41000 506.83627 496.00000 0.00202
4043 43.42000 508.55329 511.00000 0.00196
4044 43.43000 509.32190 519.00000 0.00193
4045 43.44000 508.43822 492.00000 0.00203
4046 43.45000 505.31960 564.00000 0.00177
4047 43.46000 499.59330 516.00000 0.00194
4048 43.47000 491.16014 520.00000 0.00192
4049 43.48000 480.20865 490.00000 0.00204
4050 43.49000 467.17132 542.00000 0.00185
4051 43.50000 452.63591 487.00000 0.00205
4052 43.51000 437.24354 470.00000 0.00213
4053 43.52000 421.57656 494.00000 0.00202
4054 43.53000 406.13560 481.00000 0.00208
4055 43.54000 391.28869 439.00000 0.00228
4056 43.55000 377.28036 430.00000 0.00233
4057 43.56000 364.25032 417.00000 0.00240
4058 43.57000 352.25758 406.00000 0.00246
4059 43.58000 341.30396 365.00000 0.00274
4060 43.59000 331.35374 288.00000 0.00347
4061 43.60000 322.34871 304.00000 0.00329
4062 43.61000 314.21887 290.00000 0.00345
4063 43.62000 306.88965 298.00000 0.00336
4064 43.63000 300.28663 307.00000 0.00326
4065 43.64000 294.33826 302.00000 0.00331
4066 43.65000 288.97757 287.00000 0.00348
4067 43.66000 284.14287 314.00000 0.00318
4068 43.67000 279.77810 283.00000 0.00353
4069 43.68000 275.83276 302.00000 0.00331
4070 43.69000 272.26171 264.00000 0.00379
4071 43.70000 269.02483 254.00000 0.00394
4072 43.71000 266.08663 264.00000 0.00379
4073 43.72000 263.41585 259.00000 0.00386
4074 43.73000 260.98503 276.00000 0.00362
4075 43.74000 258.77014 265.00000 0.00377
4076 43.75000 256.75020 251.00000 0.00398
4077 43.76000 254.90688 260.00000 0.00385
4078 43.77000 253.22424 272.00000 0.00368
4079 43.78000 251.68841 288.00000 0.00347
4080 43.79000 250.28733 259.00000 0.00386
4081 43.80000 249.01053 240.00000 0.00417
4082 43.81000 247.84895 262.00000 0.00382
4083 43.82000 246.79474 266.00000 0.00376
4084 43.83000 245.84113 271.00000 0.00369
4085 43.84000 244.98233 241.00000 0.00415
4086 43.85000 244.21338 257.00000 0.00389
4087 43.86000 243.53010 248.00000 0.00403
4088 43.87000 242.92898 280.00000 0.00357
4089 43.88000 242.40737 263.00000 0.00380
4090 43.89000 241.96310 277.00000 0.00361
4091 43.90000 241.59446 253.00000 0.00395
4092 43.91000 241.30040 264.00000 0.00379
4093 43.92000 241.08042 250.00000 0.00400
4094 43.93000 240.93456 278.00000 0.00360
4095 43.94000 240.86343 270.00000 0.00370
4096 43.95000 240.86818 268.00000 0.00373
4097 43.96000 240.95057 258.00000 0.00388
4098 43.97000 241.11300 274.00000 0.00365
4099 43.98000 241.35855 282.00000 0.00355
4100 43.99000 241.69102 281.00000 0.00356
4101 44.00000 242.11505 238.00000 0.00420
4102 44.01000 242.63620 261.00000 0.00383
4103 44.02000 243.26102 248.00000 0.00403
4104 44.03000 243.99725 261.00000 0.00383
4105 44.04000 244.85393 263.00000 0.00380
4106 44.05000 245.84160 246.00000 0.00407
4107 44.06000 246.97248 279.00000 0.00358
4108 44.07000 248.26075 267.00000 0.00375
4109 44.08000 249.72278 259.00000 0.00386
4110 44.09000 251.37742 296.00000 0.00338
4111 44.10000 253.24632 275.00000 0.00364
4112 44.11000 255.35420 253.00000 0.00395
4113 44.12000 257.72918 263.00000 0.00380
4114 44.13000 260.40335 268.00000 0.00373
4115 44.14000 263.41295 290.00000 0.00345
4116 44.15000 266.79880 285.00000 0.00351
4117 44.16000 270.60638 278.00000 0.00360
4118 44.17000 274.88594 301.00000 0.00332
4119 44.18000 279.69264 304.00000 0.00329
4120 44.19000 285.08721 313.00000 0.00319
4121 44.20000 291.12189 318.00000 0.00314
4122 44.21000 297.86147 327.00000 0.00306
4123 44.22000 305.36712 322.00000 0.00311
4124 44.23000 313.71701 315.00000 0.00317
4125 44.24000 322.93339 328.00000 0.00305
4126 44.25000 333.03324 337.00000 0.00297
4127 44.26000 343.99712 355.00000 0.00282
4128 44.27000 355.75322 349.00000 0.00287
4129 44.28000 368.15918 380.00000 0.00263
4130 44.29000 380.98362 365.00000 0.00274
4131 44.30000 393.89101 384.00000 0.00260
4132 44.31000 406.43479 424.00000 0.00236
4133 44.32000 418.06534 405.00000 0.00247
4134 44.33000 428.15917 423.00000 0.00236
4135 44.34000 436.07373 457.00000 0.00219
4136 44.35000 441.22583 480.00000 0.00208
4137 44.36000 443.18248 426.00000 0.00235
4138 44.37000 441.74248 419.00000 0.00239
4139 44.38000 436.98313 459.00000 0.00218
4140 44.39000 429.25332 442.00000 0.00226
4141 44.40000 419.11263 459.00000 0.00218
4142 44.41000 407.23526 435.00000 0.00230
4143 44.42000 394.30865 458.00000 0.00218
4144 44.43000 380.95240 429.00000 0.00233
4145 44.44000 367.67045 399.00000 0.00251
4146 44.45000 354.83550 423.00000 0.00236
4147 44.46000 342.69689 332.00000 0.00301
4148 44.47000 331.40108 337.00000 0.00297
4149 44.48000 321.01594 298.00000 0.00336
4150 44.49000 311.55357 303.00000 0.00330
4151 44.50000 302.98925 266.00000 0.00376
4152 44.51000 295.27570 287.00000 0.00348
4153 44.52000 288.35342 258.00000 0.00388
4154 44.53000 282.15766 255.00000 0.00392
4155 44.54000 276.62298 246.00000 0.00407
4156 44.55000 271.68612 248.00000 0.00403
4157 44.56000 267.28770 267.00000 0.00375
4158 44.57000 263.37297 250.00000 0.00400
4159 44.58000 259.89236 244.00000 0.00410
4160 44.59000 256.80252 233.00000 0.00429
4161 44.60000 254.06069 244.00000 0.00410
4162 44.61000 251.63157 227.00000 0.00441
4163 44.62000 249.48608 250.00000 0.00400
4164 44.63000 247.59772 249.00000 0.00402
4165 44.64000 245.94376 216.00000 0.00463
4166 44.65000 244.50490 239.00000 0.00418
4167 44.66000 243.26498 243.00000 0.00412
4168 44.67000 242.21072 245.00000 0.00408
4169 44.68000 241.33149 279.00000 0.00358
4170 44.69000 240.61909 247.00000 0.00405
4171 44.70000 240.06763 259.00000 0.00386
4172 44.71000 239.67339 243.00000 0.00412
4173 44.72000 239.43477 257.00000 0.00389
4174 44.73000 239.35258 228.00000 0.00439
4175 44.74000 239.42805 262.00000 0.00382
4176 44.75000 239.66646 232.00000 0.00431
4177 44.76000 240.07451 231.00000 0.00433
4178 44.77000 240.66118 257.00000 0.00389
4179 44.78000 241.43782 250.00000 0.00400
4180 44.79000 242.41830 259.00000 0.00386
4181 44.80000 243.61917 236.00000 0.00424
4182 44.81000 245.05977 240.00000 0.00417
4183 44.82000 246.76239 246.00000 0.00407
4184 44.83000 248.75236 241.00000 0.00415
4185 44.84000 251.05801 262.00000 0.00382
4186 44.85000 253.71060 249.00000 0.00402
4187 44.86000 256.74389 290.00000 0.00345
4188 44.87000 260.19357 300.00000 0.00333
4189 44.88000 264.09597 244.00000 0.00410
4190 44.89000 268.48627 254.00000 0.00394
4191 44.90000 273.39557 269.00000 0.00372
4192 44.91000 278.84674 310.00000 0.00323
4193 44.92000 284.84861 338.00000 0.00296
4194 44.93000 291.38837 337.00000 0.00297
4195 44.94000 298.42216 306.00000 0.00327
4196 44.95000 305.86441 293.00000 0.00341
4197 44.96000 313.57706 334.00000 0.00299
4198 44.97000 321.36087 331.00000 0.00302
4199 44.98000 328.95166 315.00000 0.00317
4200 44.99000 336.02537 348.00000 0.00287
4201 45.00000 342.21570 332.00000 0.00301
4202 45.01000 347.14638 313.00000 0.00319
4203 45.02000 350.47703 364.00000 0.00275
4204 45.03000 351.95579 404.00000 0.00248
4205 45.04000 351.46637 399.00000 0.00251
4206 45.05000 349.05521 342.00000 0.00292
4207 45.06000 344.92807 394.00000 0.00254
4208 45.07000 339.41583 388.00000 0.00258
4209 45.08000 332.91981 376.00000 0.00266
4210 45.09000 325.85322 383.00000 0.00261
4211 45.10000 318.59328 348.00000 0.00287
4212 45.11000 311.45166 319.00000 0.00313
4213 45.12000 304.66334 326.00000 0.00307
4214 45.13000 298.38893 313.00000 0.00319
4215 45.14000 292.72450 299.00000 0.00334
4216 45.15000 287.71360 299.00000 0.00334
4217 45.16000 283.35845 276.00000 0.00362
4218 45.17000 279.62868 303.00000 0.00330
4219 45.18000 276.46747 292.00000 0.00342
4220 45.19000 273.79565 290.00000 0.00345
4221 45.20000 271.51499 305.00000 0.00328
4222 45.21000 269.51238 265.00000 0.00377
4223 45.22000 267.66247 278.00000 0.00360
4224 45.23000 265.84044 256.00000 0.00391
4225 45.24000 263.92981 270.00000 0.00370
4226 45.25000 261.83532 304.00000 0.00329
4227 45.26000 259.49459 284.00000 0.00352
4228 45.27000 256.88526 286.00000 0.00350
4229 45.28000 254.02533 305.00000 0.00328
4230 45.29000 250.96617 245.00000 0.00408
4231 45.30000 247.78015 287.00000 0.00348
4232 45.31000 244.54677 262.00000 0.00382
4233 45.32000 241.34073 276.00000 0.00362
4234 45.33000 238.22413 259.00000 0.00386
4235 45.34000 235.24309 267.00000 0.00375
4236 45.35000 232.42777 238.00000 0.00420
4237 45.36000 229.79459 241.00000 0.00415
4238 45.37000 227.34915 227.00000 0.00441
4239 45.38000 225.08934 201.00000 0.00498
4240 45.39000 223.00786 206.00000 0.00485
4241 45.40000 221.09432 238.00000 0.00420
4242 45.41000 219.33671 246.00000 0.00407
4243 45.42000 217.72239 214.00000 0.00467
4244 45.43000 216.23882 234.00000 0.00427
4245 45.44000 214.87393 201.00000 0.00498
4246 45.45000 213.61639 188.00000 0.00532
4247 45.46000 212.45568 213.00000 0.00469
4248 45.47000 211.38218 224.00000 0.00446
4249 45.48000 210.38715 216.00000 0.00463
4250 45.49000 209.46273 197.00000 0.00508
4251 45.50000 208.60183 207.00000 0.00483
4252 45.51000 207.79812 197.00000 0.00508
4253 45.52000 207.04590 215.00000 0.00465
4254 45.53000 206.34013 223.00000 0.00448
4255 45.54000 205.67637 195.00000 0.00513
4256 45.55000 205.05043 199.00000 0.00503
4257 45.56000 204.45658 228.00000 0.00439
4258 45.57000 203.90217 205.00000 0.00488
4259 45.58000 203.37240 192.00000 0.00521
4260 45.59000 202.86888 206.00000 0.00485
4261 45.60000 202.38943 219.00000 0.00457
4262 45.61000 201.93206 186.00000 0.00538
4263 45.62000 201.49501 204.00000 0.00490
4264 45.63000 201.07669 209.00000 0.00478
4265 45.64000 200.67569 190.00000 0.00526
4266 45.65000 200.29072 186.00000 0.00538
4267 45.66000 199.92063 180.00000 0.00556
4268 45.67000 199.56435 215.00000 0.00465
4269 45.68000 199.22094 225.00000 0.00444
4270 45.69000 198.88953 195.00000 0.00513
4271 45.70000 198.56933 215.00000 0.00465
4272 45.71000 198.25961 226.00000 0.00442
4273 45.72000 197.95972 195.00000 0.00513
4274 45.73000 197.66904 211.00000 0.00474
4275 45.74000 197.38702 203.00000 0.00493
4276 45.75000 197.11313 184.00000 0.00543
4277 45.76000 196.84692 176.00000 0.00568
4278 45.77000 196.58794 195.00000 0.00513
4279 45.78000 196.33578 209.00000 0.00478
4280 45.79000 196.09008 189.00000 0.00529
4281 45.80000 195.85049 174.00000 0.00575
4282 45.81000 195.61668 197.00000 0.00508
4283 45.82000 195.38836 210.00000 0.00476
4284 45.83000 195.16525 206.00000 0.00485
4285 45.84000 194.94710 188.00000 0.00532
4286 45.85000 194.73366 196.00000 0.00510
4287 45.86000 194.52471 186.00000 0.00538
4288 45.87000 194.32004 195.00000 0.00513
4289 45.88000 194.11946 199.00000 0.00503
4290 45.89000 193.92279 184.00000 0.00543
4291 45.90000 193.72985 209.00000 0.00478
4292 45.91000 193.54049 228.00000 0.00439
4293 45.92000 193.35456 199.00000 0.00503
4294 45.93000 193.17192 205.00000 0.00488
4295 45.94000 192.99244 190.00000 0.00526
4296 45.95000 192.81600 188.00000 0.00532
4297 45.96000 192.64249 200.00000 0.00500
4298 45.97000 192.47180 210.00000 0.00476
4299 45.98000 192.30383 193.00000 0.00518
4300 45.99000 192.13849 218.00000 0.00459
4301 46.00000 191.97569 188.00000 0.00532
4302 46.01000 191.81534 207.00000 0.00483
4303 46.02000 191.65738 175.00000 0.00571
4304 46.03000 191.50174 175.00000 0.00571
4305 46.04000 191.34834 188.00000 0.00532
4306 46.05000 191.19712 171.00000 0.00585
4307 46.06000 191.04803 189.00000 0.00529
4308 46.07000 190.90103 190.00000 0.00526
4309 46.08000 190.75604 178.00000 0.00562
4310 46.09000 190.61305 179.00000 0.00559
4311 46.10000 190.47200 176.00000 0.00568
4312 46.11000 190.33285 190.00000 0.00526
4313 46.12000 190.19559 190.00000 0.00526
4314 46.13000 190.06026 179.00000 0.00559
4315 46.14000 189.92688 184.00000 0.00543
4316 46.15000 189.79560 177.00000 0.00565
4317 46.16000 189.66704 195.00000 0.00513
4318 46.17000 189.53878 197.00000 0.00508
4319 46.18000 189.41226 200.00000 0.00500
4320 46.19000 189.28749 183.00000 0.00546
4321 46.20000 189.16446 180.00000 0.00556
4322 46.21000 189.04317 204.00000 0.00490
4323 46.22000 188.92363 198.00000 0.00505
4324 46.23000 188.80584 189.00000 0.00529
4325 46.24000 188.68981 181.00000 0.00552
4326 46.25000 188.57557 192.00000 0.00521
4327 46.26000 188.46313 172.00000 0.00581
4328 46.27000 188.35252 172.00000 0.00581
4329 46.28000 188.24378 180.00000 0.00556
4330 46.29000 188.13694 180.00000 0.00556
4331 46.30000 188.03205 185.00000 0.00541
4332 46.31000 187.92916 170.00000 0.00588
4333 46.32000 187.82833 153.00000 0.00654
4334 46.33000 187.72963 172.00000 0.00581
4335 46.34000 187.63314 193.00000 0.00518
4336 46.35000 187.53894 204.00000 0.00490
4337 46.36000 187.44713 186.00000 0.00538
4338 46.37000 187.35783 219.00000 0.00457
4339 46.38000 187.27117 171.00000 0.00585
4340 46.39000 187.18727 185.00000 0.00541
4341 46.40000 187.10631 182.00000 0.00549
4342 46.41000 187.02846 189.00000 0.00529
4343 46.42000 186.95393 188.00000 0.00532
4344 46.43000 186.88295 185.00000 0.00541
4345 46.44000 186.81577 183.00000 0.00546
4346 46.45000 186.75260 211.00000 0.00474
4347 46.46000 186.69370 166.00000 0.00602
4348 46.47000 186.63943 175.00000 0.00571
4349 46.48000 186.59022 192.00000 0.00521
4350 46.49000 186.54655 202.00000 0.00495
4351 46.50000 186.50899 167.00000 0.00599
4352 46.51000 186.47879 166.00000 0.00602
4353 46.52000 186.45407 172.00000 0.00581
4354 46.53000 186.43643 187.00000 0.00535
4355 46.54000 186.42462 189.00000 0.00529
4356 46.55000 186.41942 169.00000 0.00592
4357 46.56000 186.43654 157.00000 0.00637
4358 46.57000 186.46621 200.00000 0.00500
4359 46.58000 186.50980 196.00000 0.00510
4360 46.59000 186.56890 177.00000 0.00565
4361 46.60000 186.64534 188.00000 0.00532
4362 46.61000 186.74113 186.00000 0.00538
4363 46.62000 186.85930 194.00000 0.00515
4364 46.63000 187.00094 178.00000 0.00562
4365 46.64000 187.16225 210.00000 0.00476
4366 46.65000 187.34905 193.00000 0.00518
4367 46.66000 187.56250 168.00000 0.00595
4368 46.67000 187.80311 170.00000 0.00588
4369 46.68000 188.07044 201.00000 0.00498
4370 46.69000 188.36268 171.00000 0.00585
4371 46.70000 188.67621 177.00000 0.00565
4372 46.71000 189.00518 167.00000 0.00599
4373 46.72000 189.34111 170.00000 0.00588
4374 46.73000 189.67283 170.00000 0.00588
4375 46.74000 189.98672 180.00000 0.00556
4376 46.75000 190.26754 190.00000 0.00526
4377 46.76000 190.49980 171.00000 0.00585
4378 46.77000 190.66974 177.00000 0.00565
4379 46.78000 190.76747 177.00000 0.00565
4380 46.79000 190.78890 167.00000 0.00599
4381 46.80000 190.73687 166.00000 0.00602
4382 46.81000 190.62102 183.00000 0.00546
4383 46.82000 190.45647 160.00000 0.00625
4384 46.83000 190.26162 189.00000 0.00529
4385 46.84000 190.05575 177.00000 0.00565
4386 46.85000 189.85687 168.00000 0.00595
4387 46.86000 189.68028 190.00000 0.00526
4388 46.87000 189.53763 178.00000 0.00562
4389 46.88000 189.43792 191.00000 0.00524
4390 46.89000 189.38586 177.00000 0.00565
4391 46.90000 189.38193 183.00000 0.00546
4392 46.91000 189.42360 181.00000 0.00552
4393 46.92000 189.50478 201.00000 0.00498
4394 46.93000 189.61572 160.00000 0.00625
4395 46.94000 189.74300 186.00000 0.00538
4396 46.95000 189.86983 201.00000 0.00498
4397 46.96000 189.97675 167.00000 0.00599
4398 46.97000 190.04300 186.00000 0.00538
4399 46.98000 190.04850 154.00000 0.00649
4400 46.99000 189.97631 193.00000 0.00518
4401 47.00000 189.81509 163.00000 0.00613
4402 47.01000 189.56090 167.00000 0.00599
4403 47.02000 189.21792 192.00000 0.00521
4404 47.03000 188.79755 193.00000 0.00518
4405 47.04000 188.31643 195.00000 0.00513
4406 47.05000 187.79375 187.00000 0.00535
4407 47.06000 187.24867 176.00000 0.00568
4408 47.07000 186.69829 162.00000 0.00617
4409 47.08000 186.15676 189.00000 0.00529
4410 47.09000 185.63456 154.00000 0.00649
4411 47.10000 185.13591 181.00000 0.00552
4412 47.11000 184.66674 167.00000 0.00599
4413 47.12000 184.22893 153.00000 0.00654
4414 47.13000 183.82283 192.00000 0.00521
4415 47.14000 183.44770 169.00000 0.00592
4416 47.15000 183.10210 159.00000 0.00629
4417 47.16000 182.78424 169.00000 0.00592
4418 47.17000 182.49213 188.00000 0.00532
4419 47.18000 182.22376 185.00000 0.00541
4420 47.19000 181.97715 162.00000 0.00617
4421 47.20000 181.75042 192.00000 0.00521
4422 47.21000 181.54184 202.00000 0.00495
4423 47.22000 181.34982 197.00000 0.00508
4424 47.23000 181.17291 183.00000 0.00546
4425 47.24000 181.00982 189.00000 0.00529
4426 47.25000 180.85941 143.00000 0.00699
4427 47.26000 180.72066 161.00000 0.00621
4428 47.27000 180.59269 186.00000 0.00538
4429 47.28000 180.47474 167.00000 0.00599
4430 47.29000 180.36613 167.00000 0.00599
4431 47.30000 180.26633 193.00000 0.00518
4432 47.31000 180.17484 158.00000 0.00633
4433 47.32000 180.09130 158.00000 0.00633
4434 47.33000 180.01539 178.00000 0.00562
4435 47.34000 179.94687 163.00000 0.00613
4436 47.35000 179.88558 163.00000 0.00613
4437 47.36000 179.83139 181.00000 0.00552
4438 47.37000 179.78425 201.00000 0.00498
4439 47.38000 179.74418 168.00000 0.00595
4440 47.39000 179.71124 181.00000 0.00552
4441 47.40000 179.68584 188.00000 0.00532
4442 47.41000 179.66848 145.00000 0.00690
4443 47.42000 179.66015 174.00000 0.00575
4444 47.43000 179.66432 200.00000 0.00500
4445 47.44000 179.66973 175.00000 0.00571
4446 47.45000 179.68378 159.00000 0.00629
4447 47.46000 179.70695 163.00000 0.00613
4448 47.47000 179.73980 190.00000 0.00526
4449 47.48000 179.78298 164.00000 0.00610
4450 47.49000 179.83721 163.00000 0.00613
4451 47.50000 179.90336 149.00000 0.00671
4452 47.51000 179.98242 162.00000 0.00617
4453 47.52000 180.07553 174.00000 0.00575
4454 47.53000 180.18403 154.00000 0.00649
4455 47.54000 180.30967 175.00000 0.00571
4456 47.55000 180.45353 175.00000 0.00571
4457 47.56000 180.61706 164.00000 0.00610
4458 47.57000 180.80288 174.00000 0.00575
4459 47.58000 181.01338 173.00000 0.00578
4460 47.59000 181.25125 168.00000 0.00595
4461 47.60000 181.51949 168.00000 0.00595
4462 47.61000 181.82151 194.00000 0.00515
4463 47.62000 182.16108 184.00000 0.00543
4464 47.63000 182.54241 175.00000 0.00571
4465 47.64000 182.97013 173.00000 0.00578
4466 47.65000 183.44933 160.00000 0.00625
4467 47.66000 183.98554 187.00000 0.00535
4468 47.67000 184.58465 184.00000 0.00543
4469 47.68000 185.25288 192.00000 0.00521
4470 47.69000 185.99656 194.00000 0.00515
4471 47.70000 186.82192 180.00000 0.00556
4472 47.71000 187.73468 153.00000 0.00654
4473 47.72000 188.73949 186.00000 0.00538
4474 47.73000 189.83909 171.00000 0.00585
4475 47.74000 191.03327 170.00000 0.00588
4476 47.75000 192.31749 170.00000 0.00588
4477 47.76000 193.68120 164.00000 0.00610
4478 47.77000 195.10609 200.00000 0.00500
4479 47.78000 196.56435 182.00000 0.00549
4480 47.79000 198.01745 174.00000 0.00575
4481 47.80000 199.41595 217.00000 0.00461
4482 47.81000 200.70085 187.00000 0.00535
4483 47.82000 201.80720 157.00000 0.00637
4484 47.83000 202.66991 181.00000 0.00552
4485 47.84000 203.23152 202.00000 0.00495
4486 47.85000 203.45055 185.00000 0.00541
4487 47.86000 203.30852 170.00000 0.00588
4488 47.87000 202.81369 200.00000 0.00500
4489 47.88000 202.00005 159.00000 0.00629
4490 47.89000 200.92193 176.00000 0.00568
4491 47.90000 199.64557 208.00000 0.00481
4492 47.91000 198.24008 183.00000 0.00546
4493 47.92000 196.76988 181.00000 0.00552
4494 47.93000 195.28965 166.00000 0.00602
4495 47.94000 193.84217 174.00000 0.00575
4496 47.95000 192.45825 216.00000 0.00463
4497 47.96000 191.15815 194.00000 0.00515
4498 47.97000 189.95357 184.00000 0.00543
4499 47.98000 188.84970 171.00000 0.00585
4500 47.99000 187.84730 164.00000 0.00610
4501 48.00000 186.94364 180.00000 0.00556
4502 48.01000 186.13402 163.00000 0.00613
4503 48.02000 185.41334 169.00000 0.00592
4504 48.03000 184.77575 180.00000 0.00556
4505 48.04000 184.21536 176.00000 0.00568
4506 48.05000 183.72651 166.00000 0.00602
4507 48.06000 183.30395 168.00000 0.00595
4508 48.07000 182.94286 195.00000 0.00513
4509 48.08000 182.63902 180.00000 0.00556
4510 48.09000 182.38873 170.00000 0.00588
4511 48.10000 182.18886 189.00000 0.00529
4512 48.11000 182.03683 163.00000 0.00613
4513 48.12000 181.93064 169.00000 0.00592
4514 48.13000 181.86879 193.00000 0.00518
4515 48.14000 181.85035 186.00000 0.00538
4516 48.15000 181.87489 139.00000 0.00719
4517 48.16000 181.94254 164.00000 0.00610
4518 48.17000 182.05396 193.00000 0.00518
4519 48.18000 182.21033 181.00000 0.00552
4520 48.19000 182.41340 171.00000 0.00585
4521 48.20000 182.66551 181.00000 0.00552
4522 48.21000 182.96962 185.00000 0.00541
4523 48.22000 183.32931 159.00000 0.00629
4524 48.23000 183.74885 175.00000 0.00571
4525 48.24000 184.23322 176.00000 0.00568
4526 48.25000 184.78815 177.00000 0.00565
4527 48.26000 185.42017 172.00000 0.00581
4528 48.27000 186.13659 177.00000 0.00565
4529 48.28000 186.94553 188.00000 0.00532
4530 48.29000 187.85593 152.00000 0.00658
4531 48.30000 188.87747 182.00000 0.00549
4532 48.31000 190.02052 185.00000 0.00541
4533 48.32000 191.29584 188.00000 0.00532
4534 48.33000 192.71586 204.00000 0.00490
4535 48.34000 194.28430 183.00000 0.00546
4536 48.35000 196.01249 195.00000 0.00513
4537 48.36000 197.90551 182.00000 0.00549
4538 48.37000 199.96369 218.00000 0.00459
4539 48.38000 202.18043 189.00000 0.00529
4540 48.39000 204.53944 180.00000 0.00556
4541 48.40000 207.01173 182.00000 0.00549
4542 48.41000 209.55268 193.00000 0.00518
4543 48.42000 212.09963 201.00000 0.00498
4544 48.43000 214.57115 193.00000 0.00518
4545 48.44000 216.86881 187.00000 0.00535
4546 48.45000 218.88168 217.00000 0.00461
4547 48.46000 220.49653 167.00000 0.00599
4548 48.47000 221.60956 237.00000 0.00422
4549 48.48000 222.14071 214.00000 0.00467
4550 48.49000 222.04645 202.00000 0.00495
4551 48.50000 221.32772 193.00000 0.00518
4552 48.51000 220.03060 203.00000 0.00493
4553 48.52000 218.23900 207.00000 0.00483
4554 48.53000 216.06165 201.00000 0.00498
4555 48.54000 213.61680 193.00000 0.00518
4556 48.55000 211.01842 203.00000 0.00493
4557 48.56000 208.36630 228.00000 0.00439
4558 48.57000 205.74079 208.00000 0.00481
4559 48.58000 203.20164 190.00000 0.00526
4560 48.59000 200.78956 185.00000 0.00541
4561 48.60000 198.52936 201.00000 0.00498
4562 48.61000 196.43341 195.00000 0.00513
4563 48.62000 194.50503 197.00000 0.00508
4564 48.63000 192.74123 182.00000 0.00549
4565 48.64000 191.13499 179.00000 0.00559
4566 48.65000 189.67687 186.00000 0.00538
4567 48.66000 188.35620 180.00000 0.00556
4568 48.67000 187.16191 174.00000 0.00575
4569 48.68000 186.08301 198.00000 0.00505
4570 48.69000 185.10894 204.00000 0.00490
4571 48.70000 184.22979 176.00000 0.00568
4572 48.71000 183.43638 163.00000 0.00613
4573 48.72000 182.72027 188.00000 0.00532
4574 48.73000 182.07383 152.00000 0.00658
4575 48.74000 181.49015 179.00000 0.00559
4576 48.75000 180.96304 184.00000 0.00543
4577 48.76000 180.48696 186.00000 0.00538
4578 48.77000 180.05697 172.00000 0.00581
4579 48.78000 179.66869 194.00000 0.00515
4580 48.79000 179.31825 176.00000 0.00568
4581 48.80000 179.00222 193.00000 0.00518
4582 48.81000 178.71757 193.00000 0.00518
4583 48.82000 178.46165 182.00000 0.00549
4584 48.83000 178.23211 181.00000 0.00552
4585 48.84000 178.02690 172.00000 0.00581
4586 48.85000 177.84425 152.00000 0.00658
4587 48.86000 177.68275 162.00000 0.00617
4588 48.87000 177.54126 187.00000 0.00535
4589 48.88000 177.41967 214.00000 0.00467
4590 48.89000 177.31507 199.00000 0.00503
4591 48.90000 177.22509 157.00000 0.00637
4592 48.91000 177.15077 151.00000 0.00662
4593 48.92000 177.09145 160.00000 0.00625
4594 48.93000 177.04657 167.00000 0.00599
4595 48.94000 177.01566 178.00000 0.00562
4596 48.95000 176.99834 213.00000 0.00469
4597 48.96000 176.99433 191.00000 0.00524
4598 48.97000 177.00340 195.00000 0.00513
4599 48.98000 177.02540 189.00000 0.00529
4600 48.99000 177.06027 211.00000 0.00474
4601 49.00000 177.10791 182.00000 0.00549
4602 49.01000 177.16831 191.00000 0.00524
4603 49.02000 177.24159 183.00000 0.00546
4604 49.03000 177.32789 183.00000 0.00546
4605 49.04000 177.42742 187.00000 0.00535
4606 49.05000 177.54042 199.00000 0.00503
4607 49.06000 177.66716 186.00000 0.00538
4608 49.07000 177.80779 185.00000 0.00541
4609 49.08000 177.96185 194.00000 0.00515
4610 49.09000 178.12479 181.00000 0.00552
4611 49.10000 178.31645 169.00000 0.00592
4612 49.11000 178.52582 181.00000 0.00552
4613 49.12000 178.75392 174.00000 0.00575
4614 49.13000 179.00190 192.00000 0.00521
4615 49.14000 179.27107 192.00000 0.00521
4616 49.15000 179.56289 180.00000 0.00556
4617 49.16000 179.87902 174.00000 0.00575
4618 49.17000 180.22134 209.00000 0.00478
4619 49.18000 180.59200 177.00000 0.00565
4620 49.19000 180.99358 167.00000 0.00599
4621 49.20000 181.42906 211.00000 0.00474
4622 49.21000 181.90336 179.00000 0.00559
4623 49.22000 182.41475 181.00000 0.00552
4624 49.23000 182.96926 182.00000 0.00549
4625 49.24000 183.57172 194.00000 0.00515
4626 49.25000 184.22697 215.00000 0.00465
4627 49.26000 184.94043 190.00000 0.00526
4628 49.27000 185.71817 198.00000 0.00505
4629 49.28000 186.56694 204.00000 0.00490
4630 49.29000 187.49424 183.00000 0.00546
4631 49.30000 188.50836 192.00000 0.00521
4632 49.31000 189.61841 194.00000 0.00515
4633 49.32000 190.83434 199.00000 0.00503
4634 49.33000 192.16688 220.00000 0.00455
4635 49.34000 193.62750 196.00000 0.00510
4636 49.35000 195.22821 205.00000 0.00488
4637 49.36000 196.98127 233.00000 0.00429
4638 49.37000 198.89874 225.00000 0.00444
4639 49.38000 200.99176 231.00000 0.00433
4640 49.39000 203.26949 249.00000 0.00402
4641 49.40000 205.73768 219.00000 0.00457
4642 49.41000 208.39698 232.00000 0.00431
4643 49.42000 211.24016 221.00000 0.00452
4644 49.43000 214.24903 257.00000 0.00389
4645 49.44000 217.39153 240.00000 0.00417
4646 49.45000 220.61829 259.00000 0.00386
4647 49.46000 223.86018 246.00000 0.00407
4648 49.47000 227.02739 253.00000 0.00395
4649 49.48000 230.01123 235.00000 0.00426
4650 49.49000 232.68965 269.00000 0.00372
4651 49.50000 234.93696 257.00000 0.00389
4652 49.51000 236.63720 279.00000 0.00358
4653 49.52000 237.69946 295.00000 0.00339
4654 49.53000 238.07183 284.00000 0.00352
4655 49.54000 237.75062 269.00000 0.00372
4656 49.55000 236.78179 327.00000 0.00306
4657 49.56000 235.25418 291.00000 0.00344
4658 49.57000 233.28611 306.00000 0.00327
4659 49.58000 231.00916 280.00000 0.00357
4660 49.59000 228.55291 278.00000 0.00360
4661 49.60000 226.03342 296.00000 0.00338
4662 49.61000 223.54663 259.00000 0.00386
4663 49.62000 221.16619 265.00000 0.00377
4664 49.63000 218.94461 253.00000 0.00395
4665 49.64000 216.91619 240.00000 0.00417
4666 49.65000 215.10078 240.00000 0.00417
4667 49.66000 213.50746 222.00000 0.00450
4668 49.67000 212.13773 236.00000 0.00424
4669 49.68000 210.98813 212.00000 0.00472
4670 49.69000 210.05227 217.00000 0.00461
4671 49.70000 209.32226 221.00000 0.00452
4672 49.71000 208.78976 206.00000 0.00485
4673 49.72000 208.44672 231.00000 0.00433
4674 49.73000 208.28592 222.00000 0.00450
4675 49.74000 208.30124 210.00000 0.00476
4676 49.75000 208.48809 215.00000 0.00465
4677 49.76000 208.84247 195.00000 0.00513
4678 49.77000 209.36217 220.00000 0.00455
4679 49.78000 210.04737 215.00000 0.00465
4680 49.79000 210.89950 220.00000 0.00455
4681 49.80000 211.92173 209.00000 0.00478
4682 49.81000 213.11911 214.00000 0.00467
4683 49.82000 214.49858 194.00000 0.00515
4684 49.83000 216.06915 219.00000 0.00457
4685 49.84000 217.84196 234.00000 0.00427
4686 49.85000 219.83048 242.00000 0.00413
4687 49.86000 222.05062 224.00000 0.00446
4688 49.87000 224.52092 241.00000 0.00415
4689 49.88000 227.26276 219.00000 0.00457
4690 49.89000 230.30051 228.00000 0.00439
4691 49.90000 233.66177 218.00000 0.00459
4692 49.91000 237.37751 244.00000 0.00410
4693 49.92000 241.48226 218.00000 0.00459
4694 49.93000 246.01416 252.00000 0.00397
4695 49.94000 251.01494 268.00000 0.00373
4696 49.95000 256.52977 270.00000 0.00370
4697 49.96000 262.60678 251.00000 0.00398
4698 49.97000 269.29622 298.00000 0.00336
4699 49.98000 276.64911 258.00000 0.00388
4700 49.99000 284.71507 307.00000 0.00326
4701 50.00000 293.53908 272.00000 0.00368
4702 50.01000 303.15690 325.00000 0.00308
4703 50.02000 313.58874 338.00000 0.00296
4704 50.03000 324.83094 358.00000 0.00279
4705 50.04000 336.84564 391.00000 0.00256
4706 50.05000 349.54866 355.00000 0.00282
4707 50.06000 362.79668 342.00000 0.00292
4708 50.07000 376.37543 334.00000 0.00299
4709 50.08000 389.99155 405.00000 0.00247
4710 50.09000 403.27038 407.00000 0.00246
4711 50.10000 415.77386 433.00000 0.00231
4712 50.11000 427.02289 415.00000 0.00241
4713 50.12000 436.54234 437.00000 0.00229
4714 50.13000 443.91705 445.00000 0.00225
4715 50.14000 448.85132 474.00000 0.00211
4716 50.15000 451.21883 467.00000 0.00214
4717 50.16000 451.08973 472.00000 0.00212
4718 50.17000 448.72582 507.00000 0.00197
4719 50.18000 444.54556 493.00000 0.00203
4720 50.19000 439.06093 481.00000 0.00208
4721 50.20000 432.81777 521.00000 0.00192
4722 50.21000 426.33830 510.00000 0.00196
4723 50.22000 420.07271 488.00000 0.00205
4724 50.23000 414.37494 451.00000 0.00222
4725 50.24000 409.49147 408.00000 0.00245
4726 50.25000 405.56023 417.00000 0.00240
4727 50.26000 402.61470 424.00000 0.00236
4728 50.27000 400.59030 397.00000 0.00252
4729 50.28000 399.33186 375.00000 0.00267
4730 50.29000 398.60298 359.00000 0.00279
4731 50.30000 398.09974 372.00000 0.00269
4732 50.31000 397.47106 359.00000 0.00279
4733 50.32000 396.34750 358.00000 0.00279
4734 50.33000 394.37785 331.00000 0.00302
4735 50.34000 391.26972 381.00000 0.00262
4736 50.35000 386.82689 397.00000 0.00252
4737 50.36000 380.97503 380.00000 0.00263
4738 50.37000 373.76870 402.00000 0.00249
4739 50.38000 365.37741 374.00000 0.00267
4740 50.39000 356.05445 367.00000 0.00272
4741 50.40000 346.09695 342.00000 0.00292
4742 50.41000 335.80668 356.00000 0.00281
4743 50.42000 325.45917 345.00000 0.00290
4744 50.43000 315.28440 337.00000 0.00297
4745 50.44000 305.45895 297.00000 0.00337
4746 50.45000 296.10682 322.00000 0.00311
4747 50.46000 287.30570 295.00000 0.00339
4748 50.47000 279.09566 294.00000 0.00340
4749 50.48000 271.48814 270.00000 0.00370
4750 50.49000 264.47417 243.00000 0.00412
4751 50.50000 258.03103 237.00000 0.00422
4752 50.51000 252.12751 224.00000 0.00446
4753 50.52000 246.72777 227.00000 0.00441
4754 50.53000 241.79406 226.00000 0.00442
4755 50.54000 237.28852 243.00000 0.00412
4756 50.55000 233.17443 235.00000 0.00426
4757 50.56000 229.41702 225.00000 0.00444
4758 50.57000 225.98379 253.00000 0.00395
4759 50.58000 222.84472 220.00000 0.00455
4760 50.59000 219.97226 217.00000 0.00461
4761 50.60000 217.34124 217.00000 0.00461
4762 50.61000 214.92860 201.00000 0.00498
4763 50.62000 212.71188 200.00000 0.00500
4764 50.63000 210.67387 234.00000 0.00427
4765 50.64000 208.80848 222.00000 0.00450
4766 50.65000 207.09269 210.00000 0.00476
4767 50.66000 205.51338 208.00000 0.00481
4768 50.67000 204.05884 201.00000 0.00498
4769 50.68000 202.71866 189.00000 0.00529
4770 50.69000 201.48356 188.00000 0.00532
4771 50.70000 200.34534 194.00000 0.00515
4772 50.71000 199.29670 181.00000 0.00552
4773 50.72000 198.33121 211.00000 0.00474
4774 50.73000 197.44316 204.00000 0.00490
4775 50.74000 196.62756 225.00000 0.00444
4776 50.75000 195.88003 214.00000 0.00467
4777 50.76000 195.19673 211.00000 0.00474
4778 50.77000 194.57438 211.00000 0.00474
4779 50.78000 194.01014 213.00000 0.00469
4780 50.79000 193.50165 190.00000 0.00526
4781 50.80000 193.04697 197.00000 0.00508
4782 50.81000 192.64454 186.00000 0.00538
4783 50.82000 192.29322 229.00000 0.00437
4784 50.83000 191.99225 192.00000 0.00521
4785 50.84000 191.74125 196.00000 0.00510
4786 50.85000 191.54023 208.00000 0.00481
4787 50.86000 191.38960 192.00000 0.00521
4788 50.87000 191.29016 204.00000 0.00490
4789 50.88000 191.24314 211.00000 0.00474
4790 50.89000 191.25020 199.00000 0.00503
4791 50.90000 191.31345 184.00000 0.00543
4792 50.91000 191.43547 236.00000 0.00424
4793 50.92000 191.61935 200.00000 0.00500
4794 50.93000 191.86864 222.00000 0.00450
4795 50.94000 192.18743 189.00000 0.00529
4796 50.95000 192.58033 207.00000 0.00483
4797 50.96000 193.05240 189.00000 0.00529
4798 50.97000 193.60915 208.00000 0.00481
4799 50.98000 194.25641 202.00000 0.00495
4800 50.99000 195.00016 231.00000 0.00433
4801 51.00000 195.84631 194.00000 0.00515
4802 51.01000 196.80032 195.00000 0.00513
4803 51.02000 197.86664 219.00000 0.00457
4804 51.03000 199.04813 217.00000 0.00461
4805 51.04000 200.34357 201.00000 0.00498
4806 51.05000 201.74922 212.00000 0.00472
4807 51.06000 203.25512 214.00000 0.00467
4808 51.07000 204.84390 233.00000 0.00429
4809 51.08000 206.48909 208.00000 0.00481
4810 51.09000 208.15371 213.00000 0.00469
4811 51.10000 209.78961 212.00000 0.00472
4812 51.11000 211.33821 248.00000 0.00403
4813 51.12000 212.73297 226.00000 0.00442
4814 51.13000 213.90416 225.00000 0.00444
4815 51.14000 214.78552 245.00000 0.00408
4816 51.15000 215.32224 234.00000 0.00427
4817 51.16000 215.47861 225.00000 0.00444
4818 51.17000 215.24368 246.00000 0.00407
4819 51.18000 214.63333 258.00000 0.00388
4820 51.19000 213.68804 226.00000 0.00442
4821 51.20000 212.46692 231.00000 0.00433
4822 51.21000 211.03964 233.00000 0.00429
4823 51.22000 209.47803 219.00000 0.00457
4824 51.23000 207.84919 240.00000 0.00417
4825 51.24000 206.21092 240.00000 0.00417
4826 51.25000 204.60949 231.00000 0.00433
4827 51.26000 203.07946 224.00000 0.00446
4828 51.27000 201.64477 210.00000 0.00476
4829 51.28000 200.32044 192.00000 0.00521
4830 51.29000 199.11458 197.00000 0.00508
4831 51.30000 198.03020 206.00000 0.00485
4832 51.31000 197.06671 199.00000 0.00503
4833 51.32000 196.22123 164.00000 0.00610
4834 51.33000 195.48953 186.00000 0.00538
4835 51.34000 194.86667 168.00000 0.00595
4836 51.35000 194.34760 201.00000 0.00498
4837 51.36000 193.92739 174.00000 0.00575
4838 51.37000 193.60156 187.00000 0.00535
4839 51.38000 193.36615 203.00000 0.00493
4840 51.39000 193.21789 211.00000 0.00474
4841 51.40000 193.15423 206.00000 0.00485
4842 51.41000 193.17338 208.00000 0.00481
4843 51.42000 193.27435 199.00000 0.00503
4844 51.43000 193.45699 208.00000 0.00481
4845 51.44000 193.72198 192.00000 0.00521
4846 51.45000 194.07087 199.00000 0.00503
4847 51.46000 194.50614 206.00000 0.00485
4848 51.47000 195.03118 216.00000 0.00463
4849 51.48000 195.65039 190.00000 0.00526
4850 51.49000 196.36914 197.00000 0.00508
4851 51.50000 197.19391 175.00000 0.00571
4852 51.51000 198.13223 187.00000 0.00535
4853 51.52000 199.19276 211.00000 0.00474
4854 51.53000 200.38535 178.00000 0.00562
4855 51.54000 201.72194 213.00000 0.00469
4856 51.55000 203.21431 196.00000 0.00510
4857 51.56000 204.87595 230.00000 0.00435
4858 51.57000 206.72140 214.00000 0.00467
4859 51.58000 208.76596 192.00000 0.00521
4860 51.59000 211.02539 224.00000 0.00446
4861 51.60000 213.51523 220.00000 0.00455
4862 51.61000 216.24999 229.00000 0.00437
4863 51.62000 219.24179 241.00000 0.00415
4864 51.63000 222.49868 244.00000 0.00410
4865 51.64000 226.02217 243.00000 0.00412
4866 51.65000 229.80429 249.00000 0.00402
4867 51.66000 233.82381 245.00000 0.00408
4868 51.67000 238.04214 240.00000 0.00417
4869 51.68000 242.39902 260.00000 0.00385
4870 51.69000 246.80882 266.00000 0.00376
4871 51.70000 251.15848 266.00000 0.00376
4872 51.71000 255.30843 273.00000 0.00366
4873 51.72000 259.09761 280.00000 0.00357
4874 51.73000 262.35381 276.00000 0.00362
4875 51.74000 264.90900 289.00000 0.00346
4876 51.75000 266.61828 281.00000 0.00356
4877 51.76000 267.37923 312.00000 0.00321
4878 51.77000 267.14740 288.00000 0.00347
4879 51.78000 265.94401 312.00000 0.00321
4880 51.79000 263.85331 307.00000 0.00326
4881 51.80000 261.01045 293.00000 0.00341
4882 51.81000 257.58261 321.00000 0.00312
4883 51.82000 253.74834 284.00000 0.00352
4884 51.83000 249.67914 315.00000 0.00317
4885 51.84000 245.52614 284.00000 0.00352
4886 51.85000 241.41264 284.00000 0.00352
4887 51.86000 237.43178 282.00000 0.00355
4888 51.87000 233.64796 267.00000 0.00375
4889 51.88000 230.10032 246.00000 0.00407
4890 51.89000 226.80711 222.00000 0.00450
4891 51.90000 223.77014 231.00000 0.00433
4892 51.91000 220.97888 210.00000 0.00476
4893 51.92000 218.41419 195.00000 0.00513
4894 51.93000 216.05157 212.00000 0.00472
4895 51.94000 213.86419 206.00000 0.00485
4896 51.95000 211.82561 209.00000 0.00478
4897 51.96000 209.91203 214.00000 0.00467
4898 51.97000 208.10407 201.00000 0.00498
4899 51.98000 206.38761 179.00000 0.00559
4900 51.99000 204.75389 201.00000 0.00498
4901 52.00000 203.19876 179.00000 0.00559
4902 52.01000 201.72138 197.00000 0.00508
4903 52.02000 200.32282 199.00000 0.00503
4904 52.03000 199.00472 221.00000 0.00452
4905 52.04000 197.76830 211.00000 0.00474
4906 52.05000 196.61382 185.00000 0.00541
4907 52.06000 195.54034 208.00000 0.00481
4908 52.07000 194.54577 227.00000 0.00441
4909 52.08000 193.62708 204.00000 0.00490
4910 52.09000 192.78052 185.00000 0.00541
4911 52.10000 192.00191 191.00000 0.00524
4912 52.11000 191.28686 183.00000 0.00546
4913 52.12000 190.63093 170.00000 0.00588
4914 52.13000 190.02979 179.00000 0.00559
4915 52.14000 189.47927 190.00000 0.00526
4916 52.15000 188.97547 162.00000 0.00617
4917 52.16000 188.51474 170.00000 0.00588
4918 52.17000 188.09372 181.00000 0.00552
4919 52.18000 187.70935 189.00000 0.00529
4920 52.19000 187.35883 193.00000 0.00518
4921 52.20000 187.03961 168.00000 0.00595
4922 52.21000 186.74942 177.00000 0.00565
4923 52.22000 186.48619 181.00000 0.00552
4924 52.23000 186.24809 181.00000 0.00552
4925 52.24000 186.03345 157.00000 0.00637
4926 52.25000 185.84081 181.00000 0.00552
4927 52.26000 185.66888 188.00000 0.00532
4928 52.27000 185.51649 178.00000 0.00562
4929 52.28000 185.38266 193.00000 0.00518
4930 52.29000 185.26649 175.00000 0.00571
4931 52.30000 185.16726 192.00000 0.00521
4932 52.31000 185.08433 168.00000 0.00595
4933 52.32000 185.01717 173.00000 0.00578
4934 52.33000 184.96539 182.00000 0.00549
4935 52.34000 184.92868 182.00000 0.00549
4936 52.35000 184.90682 196.00000 0.00510
4937 52.36000 184.89973 186.00000 0.00538
4938 52.37000 184.90739 228.00000 0.00439
4939 52.38000 184.92992 171.00000 0.00585
4940 52.39000 184.96752 184.00000 0.00543
4941 52.40000 185.02052 183.00000 0.00546
4942 52.41000 185.08936 177.00000 0.00565
4943 52.42000 185.17460 172.00000 0.00581
4944 52.43000 185.27696 200.00000 0.00500
4945 52.44000 185.39726 199.00000 0.00503
4946 52.45000 185.53652 169.00000 0.00592
4947 52.46000 185.69590 167.00000 0.00599
4948 52.47000 185.87675 187.00000 0.00535
4949 52.48000 186.08061 184.00000 0.00543
4950 52.49000 186.30925 178.00000 0.00562
4951 52.50000 186.56463 182.00000 0.00549
4952 52.51000 186.84897 163.00000 0.00613
4953 52.52000 187.16476 162.00000 0.00617
4954 52.53000 187.51471 188.00000 0.00532
4955 52.54000 187.90182 181.00000 0.00552
4956 52.55000 188.32933 186.00000 0.00538
4957 52.56000 188.80070 196.00000 0.00510
4958 52.57000 189.31958 190.00000 0.00526
4959 52.58000 189.88971 181.00000 0.00552
4960 52.59000 190.51478 200.00000 0.00500
4961 52.60000 191.19828 213.00000 0.00469
4962 52.61000 191.94316 203.00000 0.00493
4963 52.62000 192.75149 193.00000 0.00518
4964 52.63000 193.62391 205.00000 0.00488
4965 52.64000 194.55897 189.00000 0.00529
4966 52.65000 195.55230 173.00000 0.00578
4967 52.66000 196.59568 205.00000 0.00488
4968 52.67000 197.67600 192.00000 0.00521
4969 52.68000 198.77441 200.00000 0.00500
4970 52.69000 199.86567 197.00000 0.00508
4971 52.70000 200.91817 210.00000 0.00476
4972 52.71000 201.89477 188.00000 0.00532
4973 52.72000 202.75485 187.00000 0.00535
4974 52.73000 203.45753 208.00000 0.00481
4975 52.74000 203.96581 209.00000 0.00478
4976 52.75000 204.25115 211.00000 0.00474
4977 52.76000 204.29746 215.00000 0.00465
4978 52.77000 204.10359 207.00000 0.00483
4979 52.78000 203.68364 202.00000 0.00495
4980 52.79000 203.06495 171.00000 0.00585
4981 52.80000 202.28426 231.00000 0.00433
4982 52.81000 201.38307 210.00000 0.00476
4983 52.82000 200.40305 214.00000 0.00467
4984 52.83000 199.38251 173.00000 0.00578
4985 52.84000 198.35405 190.00000 0.00526
4986 52.85000 197.34362 193.00000 0.00518
4987 52.86000 196.37044 195.00000 0.00513
4988 52.87000 195.44775 214.00000 0.00467
4989 52.88000 194.58374 192.00000 0.00521
4990 52.89000 193.78262 181.00000 0.00552
4991 52.90000 193.04566 177.00000 0.00565
4992 52.91000 192.37204 210.00000 0.00476
4993 52.92000 191.75950 201.00000 0.00498
4994 52.93000 191.20494 192.00000 0.00521
4995 52.94000 190.70474 197.00000 0.00508
4996 52.95000 190.25510 189.00000 0.00529
4997 52.96000 189.85219 202.00000 0.00495
4998 52.97000 189.49230 187.00000 0.00535
4999 52.98000 189.17190 202.00000 0.00495
5000 52.99000 188.88768 189.00000 0.00529
5001 53.00000 188.63652 171.00000 0.00585
5002 53.01000 188.41593 177.00000 0.00565
5003 53.02000 188.22346 154.00000 0.00649
5004 53.03000 188.05675 163.00000 0.00613
5005 53.04000 187.91382 166.00000 0.00602
5006 53.05000 187.79293 182.00000 0.00549
5007 53.06000 187.69257 168.00000 0.00595
5008 53.07000 187.61144 188.00000 0.00532
5009 53.08000 187.54843 171.00000 0.00585
5010 53.09000 187.50262 180.00000 0.00556
5011 53.10000 187.47324 185.00000 0.00541
5012 53.11000 187.45970 204.00000 0.00490
5013 53.12000 187.46155 176.00000 0.00568
5014 53.13000 187.47849 187.00000 0.00535
5015 53.14000 187.51032 205.00000 0.00488
5016 53.15000 187.55697 195.00000 0.00513
5017 53.16000 187.61848 160.00000 0.00625
5018 53.17000 187.69495 199.00000 0.00503
5019 53.18000 187.78654 184.00000 0.00543
5020 53.19000 187.89342 197.00000 0.00508
5021 53.20000 188.01574 178.00000 0.00562
5022 53.21000 188.15355 199.00000 0.00503
5023 53.22000 188.30674 195.00000 0.00513
5024 53.23000 188.47491 172.00000 0.00581
5025 53.24000 188.65724 205.00000 0.00488
5026 53.25000 188.85241 183.00000 0.00546
5027 53.26000 189.05836 170.00000 0.00588
5028 53.27000 189.27225 166.00000 0.00602
5029 53.28000 189.49029 197.00000 0.00508
5030 53.29000 189.70783 178.00000 0.00562
5031 53.30000 189.91943 159.00000 0.00629
5032 53.31000 190.11919 176.00000 0.00568
5033 53.32000 190.30124 195.00000 0.00513
5034 53.33000 190.46035 204.00000 0.00490
5035 53.34000 190.59259 192.00000 0.00521
5036 53.35000 190.69592 212.00000 0.00472
5037 53.36000 190.77051 169.00000 0.00592
5038 53.37000 190.81884 223.00000 0.00448
5039 53.38000 190.84530 177.00000 0.00565
5040 53.39000 190.85567 202.00000 0.00495
5041 53.40000 190.85637 169.00000 0.00592
5042 53.41000 190.85373 184.00000 0.00543
5043 53.42000 190.85340 182.00000 0.00549
5044 53.43000 190.85990 211.00000 0.00474
5045 53.44000 190.87637 201.00000 0.00498
5046 53.45000 190.90446 199.00000 0.00503
5047 53.46000 190.94426 185.00000 0.00541
5048 53.47000 190.99439 189.00000 0.00529
5049 53.48000 191.05212 199.00000 0.00503
5050 53.49000 191.11354 179.00000 0.00559
5051 53.50000 191.17388 161.00000 0.00621
5052 53.51000 191.22790 184.00000 0.00543
5053 53.52000 191.27042 180.00000 0.00556
5054 53.53000 191.29689 197.00000 0.00508
5055 53.54000 191.30396 170.00000 0.00588
5056 53.55000 191.28987 169.00000 0.00592
5057 53.56000 191.25470 203.00000 0.00493
5058 53.57000 191.20026 195.00000 0.00513
5059 53.58000 191.12981 165.00000 0.00606
5060 53.59000 191.04750 179.00000 0.00559
5061 53.60000 190.95789 186.00000 0.00538
5062 53.61000 190.86540 180.00000 0.00556
5063 53.62000 190.77402 176.00000 0.00568
5064 53.63000 190.68700 175.00000 0.00571
5065 53.64000 190.60689 191.00000 0.00524
5066 53.65000 190.53545 167.00000 0.00599
5067 53.66000 190.47384 189.00000 0.00529
5068 53.67000 190.42267 179.00000 0.00559
5069 53.68000 190.38217 193.00000 0.00518
5070 53.69000 190.35223 180.00000 0.00556
5071 53.70000 190.33258 179.00000 0.00559
5072 53.71000 190.32280 170.00000 0.00588
5073 53.72000 190.32241 183.00000 0.00546
5074 53.73000 190.33087 162.00000 0.00617
5075 53.74000 190.34766 186.00000 0.00538
5076 53.75000 190.37227 199.00000 0.00503
5077 53.76000 190.40420 182.00000 0.00549
5078 53.77000 190.44301 184.00000 0.00543
5079 53.78000 190.48828 185.00000 0.00541
5080 53.79000 190.53953 151.00000 0.00662
5081 53.80000 190.59621 166.00000 0.00602
5082 53.81000 190.65794 176.00000 0.00568
5083 53.82000 190.72436 206.00000 0.00485
5084 53.83000 190.79508 184.00000 0.00543
5085 53.84000 190.86961 174.00000 0.00575
5086 53.85000 190.94718 172.00000 0.00581
5087 53.86000 191.02584 184.00000 0.00543
5088 53.87000 191.09557 200.00000 0.00500
5089 53.88000 191.19132 191.00000 0.00524
5090 53.89000 191.29146 186.00000 0.00538
5091 53.90000 191.39599 168.00000 0.00595
5092 53.91000 191.50493 194.00000 0.00515
5093 53.92000 191.61835 187.00000 0.00535
5094 53.93000 191.73635 203.00000 0.00493
5095 53.94000 191.85902 166.00000 0.00602
5096 53.95000 191.98654 203.00000 0.00493
5097 53.96000 192.11906 188.00000 0.00532
5098 53.97000 192.25682 198.00000 0.00505
5099 53.98000 192.40005 186.00000 0.00538
5100 53.99000 192.54905 191.00000 0.00524
5101 54.00000 192.70414 207.00000 0.00483
5102 54.01000 192.86570 184.00000 0.00543
5103 54.02000 193.03415 181.00000 0.00552
5104 54.03000 193.20995 182.00000 0.00549
5105 54.04000 193.39364 177.00000 0.00565
5106 54.05000 193.58579 184.00000 0.00543
5107 54.06000 193.78706 198.00000 0.00505
5108 54.07000 193.99817 176.00000 0.00568
5109 54.08000 194.21984 203.00000 0.00493
5110 54.09000 194.45281 181.00000 0.00552
5111 54.10000 194.69800 200.00000 0.00500
5112 54.11000 194.95633 199.00000 0.00503
5113 54.12000 195.22879 197.00000 0.00508
5114 54.13000 195.51632 187.00000 0.00535
5115 54.14000 195.81974 206.00000 0.00485
5116 54.15000 196.13906 190.00000 0.00526
5117 54.16000 196.47187 180.00000 0.00556
5118 54.17000 196.83471 186.00000 0.00538
5119 54.18000 197.21825 198.00000 0.00505
5120 54.19000 197.62290 194.00000 0.00515
5121 54.20000 198.04850 212.00000 0.00472
5122 54.21000 198.49419 179.00000 0.00559
5123 54.22000 198.95812 232.00000 0.00431
5124 54.23000 199.43721 225.00000 0.00444
5125 54.24000 199.92692 212.00000 0.00472
5126 54.25000 200.42109 204.00000 0.00490
5127 54.26000 200.91186 230.00000 0.00435
5128 54.27000 201.38993 219.00000 0.00457
5129 54.28000 201.84493 215.00000 0.00465
5130 54.29000 202.26623 192.00000 0.00521
5131 54.30000 202.64395 186.00000 0.00538
5132 54.31000 202.97014 187.00000 0.00535
5133 54.32000 203.23983 202.00000 0.00495
5134 54.33000 203.45186 232.00000 0.00431
5135 54.34000 203.60909 242.00000 0.00413
5136 54.35000 203.71818 262.00000 0.00382
5137 54.36000 203.78868 242.00000 0.00413
5138 54.37000 203.83197 236.00000 0.00424
5139 54.38000 203.86002 218.00000 0.00459
5140 54.39000 203.88443 236.00000 0.00424
5141 54.40000 203.91560 195.00000 0.00513
5142 54.41000 203.96241 211.00000 0.00474
5143 54.42000 204.03206 225.00000 0.00444
5144 54.43000 204.13019 220.00000 0.00455
5145 54.44000 204.26105 230.00000 0.00435
5146 54.45000 204.42786 207.00000 0.00483
5147 54.46000 204.63300 213.00000 0.00469
5148 54.47000 204.87834 199.00000 0.00503
5149 54.48000 205.16542 191.00000 0.00524
5150 54.49000 205.49566 203.00000 0.00493
5151 54.50000 205.87048 180.00000 0.00556
5152 54.51000 206.29145 198.00000 0.00505
5153 54.52000 206.76036 225.00000 0.00444
5154 54.53000 207.27929 191.00000 0.00524
5155 54.54000 207.85071 185.00000 0.00541
5156 54.55000 208.47750 202.00000 0.00495
5157 54.56000 209.16303 195.00000 0.00513
5158 54.57000 209.91119 198.00000 0.00505
5159 54.58000 210.72646 186.00000 0.00538
5160 54.59000 211.61395 201.00000 0.00498
5161 54.60000 212.57949 222.00000 0.00450
5162 54.61000 213.62964 208.00000 0.00481
5163 54.62000 214.77178 175.00000 0.00571
5164 54.63000 216.01415 194.00000 0.00515
5165 54.64000 217.36595 220.00000 0.00455
5166 54.65000 218.83733 223.00000 0.00448
5167 54.66000 220.43949 201.00000 0.00498
5168 54.67000 222.18466 200.00000 0.00500
5169 54.68000 224.08608 200.00000 0.00500
5170 54.69000 226.15800 223.00000 0.00448
5171 54.70000 228.41545 213.00000 0.00469
5172 54.71000 230.87407 218.00000 0.00459
5173 54.72000 233.54968 209.00000 0.00478
5174 54.73000 236.45769 229.00000 0.00437
5175 54.74000 239.61223 228.00000 0.00439
5176 54.75000 243.02490 238.00000 0.00420
5177 54.76000 246.70314 238.00000 0.00420
5178 54.77000 250.64800 229.00000 0.00437
5179 54.78000 254.85135 245.00000 0.00408
5180 54.79000 259.29260 216.00000 0.00463
5181 54.80000 263.93482 238.00000 0.00420
5182 54.81000 268.72094 270.00000 0.00370
5183 54.82000 273.57015 255.00000 0.00392
5184 54.83000 278.37577 266.00000 0.00376
5185 54.84000 283.00529 254.00000 0.00394
5186 54.85000 287.30396 271.00000 0.00369
5187 54.86000 291.10275 277.00000 0.00361
5188 54.87000 294.23085 305.00000 0.00328
5189 54.88000 296.53203 282.00000 0.00355
5190 54.89000 297.88239 284.00000 0.00352
5191 54.90000 298.20646 272.00000 0.00368
5192 54.91000 297.48794 313.00000 0.00319
5193 54.92000 295.77238 307.00000 0.00326
5194 54.93000 293.16107 343.00000 0.00292
5195 54.94000 289.79753 328.00000 0.00305
5196 54.95000 285.84981 312.00000 0.00321
5197 54.96000 281.49236 290.00000 0.00345
5198 54.97000 276.89066 303.00000 0.00330
5199 54.98000 272.19049 299.00000 0.00334
5200 54.99000 267.51204 265.00000 0.00377
5201 55.00000 262.94835 245.00000 0.00408
5202 55.01000 258.56681 267.00000 0.00375
5203 55.02000 254.41244 234.00000 0.00427
5204 55.03000 250.51196 241.00000 0.00415
5205 55.04000 246.87779 233.00000 0.00429
5206 55.05000 243.51181 232.00000 0.00431
5207 55.06000 240.40843 256.00000 0.00391
5208 55.07000 237.55707 233.00000 0.00429
5209 55.08000 234.94403 210.00000 0.00476
5210 55.09000 232.55394 211.00000 0.00474
5211 55.10000 230.37073 224.00000 0.00446
5212 55.11000 228.37832 226.00000 0.00442
5213 55.12000 226.56109 207.00000 0.00483
5214 55.13000 224.90419 218.00000 0.00459
5215 55.14000 223.39366 216.00000 0.00463
5216 55.15000 222.01655 211.00000 0.00474
5217 55.16000 220.76092 207.00000 0.00483
5218 55.17000 219.61585 208.00000 0.00481
5219 55.18000 218.57138 227.00000 0.00441
5220 55.19000 217.61847 204.00000 0.00490
5221 55.20000 216.74894 208.00000 0.00481
5222 55.21000 215.95539 216.00000 0.00463
5223 55.22000 215.23106 223.00000 0.00448
5224 55.23000 214.56982 210.00000 0.00476
5225 55.24000 213.96622 216.00000 0.00463
5226 55.25000 213.41532 238.00000 0.00420
5227 55.26000 212.91260 223.00000 0.00448
5228 55.27000 212.45393 213.00000 0.00469
5229 55.28000 212.03521 248.00000 0.00403
5230 55.29000 211.65065 203.00000 0.00493
5231 55.30000 211.30099 205.00000 0.00488
5232 55.31000 210.99131 209.00000 0.00478
5233 55.32000 210.71192 220.00000 0.00455
5234 55.33000 210.46075 218.00000 0.00459
5235 55.34000 210.23594 205.00000 0.00488
5236 55.35000 210.03583 209.00000 0.00478
5237 55.36000 209.85891 229.00000 0.00437
5238 55.37000 209.70384 195.00000 0.00513
5239 55.38000 209.56941 220.00000 0.00455
5240 55.39000 209.45455 255.00000 0.00392
5241 55.40000 209.35830 229.00000 0.00437
5242 55.41000 209.27982 224.00000 0.00446
5243 55.42000 209.21834 226.00000 0.00442
5244 55.43000 209.17321 244.00000 0.00410
5245 55.44000 209.14386 211.00000 0.00474
5246 55.45000 209.12981 227.00000 0.00441
5247 55.46000 209.13064 210.00000 0.00476
5248 55.47000 209.14601 213.00000 0.00469
5249 55.48000 209.17566 213.00000 0.00469
5250 55.49000 209.21941 201.00000 0.00498
5251 55.50000 209.27712 211.00000 0.00474
5252 55.51000 209.34875 204.00000 0.00490
5253 55.52000 209.43431 220.00000 0.00455
5254 55.53000 209.53389 242.00000 0.00413
5255 55.54000 209.64765 226.00000 0.00442
5256 55.55000 209.77582 213.00000 0.00469
5257 55.56000 209.91871 220.00000 0.00455
5258 55.57000 210.07671 212.00000 0.00472
5259 55.58000 210.25029 206.00000 0.00485
5260 55.59000 210.44000 222.00000 0.00450
5261 55.60000 210.64650 215.00000 0.00465
5262 55.61000 210.87051 225.00000 0.00444
5263 55.62000 211.11286 201.00000 0.00498
5264 55.63000 211.37446 249.00000 0.00402
5265 55.64000 211.65634 229.00000 0.00437
5266 55.65000 211.95956 219.00000 0.00457
5267 55.66000 212.28528 220.00000 0.00455
5268 55.67000 212.63470 219.00000 0.00457
5269 55.68000 213.00902 231.00000 0.00433
5270 55.69000 213.40941 210.00000 0.00476
5271 55.70000 213.83692 237.00000 0.00422
5272 55.71000 214.29239 213.00000 0.00469
5273 55.72000 214.77630 225.00000 0.00444
5274 55.73000 215.28866 233.00000 0.00429
5275 55.74000 215.82874 214.00000 0.00467
5276 55.75000 216.39485 237.00000 0.00422
5277 55.76000 216.98414 238.00000 0.00420
5278 55.77000 217.59230 218.00000 0.00459
5279 55.78000 218.21339 237.00000 0.00422
5280 55.79000 218.83983 230.00000 0.00435
5281 55.80000 219.46248 214.00000 0.00467
5282 55.81000 220.07106 255.00000 0.00392
5283 55.82000 220.65483 228.00000 0.00439
5284 55.83000 221.20359 230.00000 0.00435
5285 55.84000 221.70876 240.00000 0.00417
5286 55.85000 222.16452 242.00000 0.00413
5287 55.86000 222.56874 245.00000 0.00408
5288 55.87000 222.92337 258.00000 0.00388
5289 55.88000 223.23437 266.00000 0.00376
5290 55.89000 223.51106 224.00000 0.00446
5291 55.90000 223.76510 243.00000 0.00412
5292 55.91000 224.00933 217.00000 0.00461
5293 55.92000 224.25665 232.00000 0.00431
5294 55.93000 224.51919 262.00000 0.00382
5295 55.94000 224.80773 244.00000 0.00410
5296 55.95000 225.13150 223.00000 0.00448
5297 55.96000 225.49811 240.00000 0.00417
5298 55.97000 225.91377 249.00000 0.00402
5299 55.98000 226.38353 246.00000 0.00407
5300 55.99000 226.91155 247.00000 0.00405
5301 56.00000 227.50139 221.00000 0.00452
5302 56.01000 228.15626 227.00000 0.00441
5303 56.02000 228.87924 226.00000 0.00442
5304 56.03000 229.67349 232.00000 0.00431
5305 56.04000 230.54234 245.00000 0.00408
5306 56.05000 231.48945 232.00000 0.00431
5307 56.06000 232.51892 247.00000 0.00405
5308 56.07000 233.63528 268.00000 0.00373
5309 56.08000 234.84374 249.00000 0.00402
5310 56.09000 236.15019 219.00000 0.00457
5311 56.10000 237.56126 232.00000 0.00431
5312 56.11000 239.08434 243.00000 0.00412
5313 56.12000 240.72757 215.00000 0.00465
5314 56.13000 242.49886 259.00000 0.00386
5315 56.14000 244.41064 263.00000 0.00380
5316 56.15000 246.47974 200.00000 0.00500
5317 56.16000 248.71445 255.00000 0.00392
5318 56.17000 251.12909 280.00000 0.00357
5319 56.18000 253.73937 250.00000 0.00400
5320 56.19000 256.56246 238.00000 0.00420
5321 56.20000 259.61699 260.00000 0.00385
5322 56.21000 262.92302 239.00000 0.00418
5323 56.22000 266.50192 265.00000 0.00377
5324 56.23000 270.37614 271.00000 0.00369
5325 56.24000 274.56884 272.00000 0.00368
5326 56.25000 279.10329 247.00000 0.00405
5327 56.26000 284.00196 269.00000 0.00372
5328 56.27000 289.28536 255.00000 0.00392
5329 56.28000 294.97026 277.00000 0.00361
5330 56.29000 301.06750 286.00000 0.00350
5331 56.30000 307.57921 275.00000 0.00364
5332 56.31000 314.49539 319.00000 0.00313
5333 56.32000 321.79008 301.00000 0.00332
5334 56.33000 329.41743 289.00000 0.00346
5335 56.34000 337.30805 285.00000 0.00351
5336 56.35000 345.36669 291.00000 0.00344
5337 56.36000 353.47206 320.00000 0.00312
5338 56.37000 361.48014 328.00000 0.00305
5339 56.38000 369.23172 326.00000 0.00307
5340 56.39000 376.56469 335.00000 0.00299
5341 56.40000 383.33026 354.00000 0.00282
5342 56.41000 389.41077 355.00000 0.00282
5343 56.42000 394.73857 381.00000 0.00262
5344 56.43000 399.30627 431.00000 0.00232
5345 56.44000 403.16971 407.00000 0.00246
5346 56.45000 406.44494 425.00000 0.00235
5347 56.46000 409.29316 409.00000 0.00244
5348 56.47000 411.90036 463.00000 0.00216
5349 56.48000 414.45431 400.00000 0.00250
5350 56.49000 417.12236 432.00000 0.00231
5351 56.50000 420.03241 402.00000 0.00249
5352 56.51000 423.25817 427.00000 0.00234
5353 56.52000 426.80903 424.00000 0.00236
5354 56.53000 430.62449 418.00000 0.00239
5355 56.54000 434.57317 431.00000 0.00232
5356 56.55000 438.45717 440.00000 0.00227
5357 56.56000 442.02269 406.00000 0.00246
5358 56.57000 444.97767 447.00000 0.00224
5359 56.58000 447.01674 452.00000 0.00221
5360 56.59000 447.85166 476.00000 0.00210
5361 56.60000 447.24392 476.00000 0.00210
5362 56.61000 445.03414 466.00000 0.00215
5363 56.62000 441.16264 464.00000 0.00216
5364 56.63000 435.67673 477.00000 0.00210
5365 56.64000 428.72299 525.00000 0.00190
5366 56.65000 420.52669 475.00000 0.00211
5367 56.66000 411.36308 454.00000 0.00220
5368 56.67000 401.52663 458.00000 0.00218
5369 56.68000 391.30381 464.00000 0.00216
5370 56.69000 380.95265 425.00000 0.00235
5371 56.70000 370.69052 390.00000 0.00256
5372 56.71000 360.68922 343.00000 0.00292
5373 56.72000 351.07588 361.00000 0.00277
5374 56.73000 341.93744 349.00000 0.00287
5375 56.74000 333.32699 340.00000 0.00294
5376 56.75000 325.27065 310.00000 0.00323
5377 56.76000 317.77403 303.00000 0.00330
5378 56.77000 310.82790 308.00000 0.00325
5379 56.78000 304.41281 308.00000 0.00325
5380 56.79000 298.50277 296.00000 0.00338
5381 56.80000 293.06801 268.00000 0.00373
5382 56.81000 288.07704 286.00000 0.00350
5383 56.82000 283.49804 252.00000 0.00397
5384 56.83000 279.29989 277.00000 0.00361
5385 56.84000 275.45278 258.00000 0.00388
5386 56.85000 271.92865 247.00000 0.00405
5387 56.86000 268.70132 258.00000 0.00388
5388 56.87000 265.74667 253.00000 0.00395
5389 56.88000 263.04256 258.00000 0.00388
5390 56.89000 260.56885 242.00000 0.00413
5391 56.90000 258.30727 265.00000 0.00377
5392 56.91000 256.24131 256.00000 0.00391
5393 56.92000 254.35616 239.00000 0.00418
5394 56.93000 252.63852 280.00000 0.00357
5395 56.94000 251.07655 279.00000 0.00358
5396 56.95000 249.65973 251.00000 0.00398
5397 56.96000 248.37878 269.00000 0.00372
5398 56.97000 247.22553 270.00000 0.00370
5399 56.98000 246.19291 250.00000 0.00400
5400 56.99000 245.27481 250.00000 0.00400
5401 57.00000 244.46603 241.00000 0.00415
5402 57.01000 243.76228 237.00000 0.00422
5403 57.02000 243.16005 242.00000 0.00413
5404 57.03000 242.65665 260.00000 0.00385
5405 57.04000 242.25014 241.00000 0.00415
5406 57.05000 241.93932 234.00000 0.00427
5407 57.06000 241.72372 229.00000 0.00437
5408 57.07000 241.60359 255.00000 0.00392
5409 57.08000 241.57988 214.00000 0.00467
5410 57.09000 241.65427 236.00000 0.00424
5411 57.10000 241.82912 256.00000 0.00391
5412 57.11000 242.10754 243.00000 0.00412
5413 57.12000 242.49332 274.00000 0.00365
5414 57.13000 242.99094 251.00000 0.00398
5415 57.14000 243.60552 272.00000 0.00368
5416 57.15000 244.34276 222.00000 0.00450
5417 57.16000 245.20885 249.00000 0.00402
5418 57.17000 246.21029 274.00000 0.00365
5419 57.18000 247.35363 267.00000 0.00375
5420 57.19000 248.64516 267.00000 0.00375
5421 57.20000 250.09037 276.00000 0.00362
5422 57.21000 251.69331 256.00000 0.00391
5423 57.22000 253.45571 271.00000 0.00369
5424 57.23000 255.37582 243.00000 0.00412
5425 57.24000 257.44707 235.00000 0.00426
5426 57.25000 259.65636 243.00000 0.00412
5427 57.26000 261.98235 269.00000 0.00372
5428 57.27000 264.39363 252.00000 0.00397
5429 57.28000 266.84720 290.00000 0.00345
5430 57.29000 269.28761 284.00000 0.00352
5431 57.30000 271.64725 283.00000 0.00353
5432 57.31000 273.84827 289.00000 0.00346
5433 57.32000 275.80647 323.00000 0.00310
5434 57.33000 277.43730 280.00000 0.00357
5435 57.34000 278.66342 303.00000 0.00330
5436 57.35000 279.42301 288.00000 0.00347
5437 57.36000 279.67717 280.00000 0.00357
5438 57.37000 279.41508 314.00000 0.00318
5439 57.38000 278.65560 315.00000 0.00317
5440 57.39000 277.44497 288.00000 0.00347
5441 57.40000 275.85102 298.00000 0.00336
5442 57.41000 273.95536 323.00000 0.00310
5443 57.42000 271.84492 321.00000 0.00312
5444 57.43000 269.60449 328.00000 0.00305
5445 57.44000 267.31113 280.00000 0.00357
5446 57.45000 265.03067 270.00000 0.00370
5447 57.46000 262.81633 244.00000 0.00410
5448 57.47000 260.70888 276.00000 0.00362
5449 57.48000 258.73777 253.00000 0.00395
5450 57.49000 256.92292 272.00000 0.00368
5451 57.50000 255.27659 251.00000 0.00398
5452 57.51000 253.80520 248.00000 0.00403
5453 57.52000 252.51097 253.00000 0.00395
5454 57.53000 251.39322 243.00000 0.00412
5455 57.54000 250.44949 246.00000 0.00407
5456 57.55000 249.67640 246.00000 0.00407
5457 57.56000 249.07021 257.00000 0.00389
5458 57.57000 248.62739 247.00000 0.00405
5459 57.58000 248.34490 259.00000 0.00386
5460 57.59000 248.22045 218.00000 0.00459
5461 57.60000 248.25271 248.00000 0.00403
5462 57.61000 248.44141 259.00000 0.00386
5463 57.62000 248.78743 241.00000 0.00415
5464 57.63000 249.29292 239.00000 0.00418
5465 57.64000 249.96129 250.00000 0.00400
5466 57.65000 250.79731 234.00000 0.00427
5467 57.66000 251.80707 260.00000 0.00385
5468 57.67000 252.99805 239.00000 0.00418
5469 57.68000 254.37911 262.00000 0.00382
5470 57.69000 255.96038 250.00000 0.00400
5471 57.70000 257.75326 258.00000 0.00388
5472 57.71000 259.77020 278.00000 0.00360
5473 57.72000 262.02448 273.00000 0.00366
5474 57.73000 264.52984 278.00000 0.00360
5475 57.74000 267.29989 282.00000 0.00355
5476 57.75000 270.34736 257.00000 0.00389
5477 57.76000 273.68296 251.00000 0.00398
5478 57.77000 277.31399 282.00000 0.00355
5479 57.78000 281.24233 268.00000 0.00373
5480 57.79000 285.46213 278.00000 0.00360
5481 57.80000 289.95679 299.00000 0.00334
5482 57.81000 294.69565 299.00000 0.00334
5483 57.82000 299.63038 295.00000 0.00339
5484 57.83000 304.69141 292.00000 0.00342
5485 57.84000 309.78521 300.00000 0.00333
5486 57.85000 314.79301 296.00000 0.00338
5487 57.86000 319.57206 312.00000 0.00321
5488 57.87000 323.96029 319.00000 0.00313
5489 57.88000 327.78513 319.00000 0.00313
5490 57.89000 330.87617 345.00000 0.00290
5491 57.90000 333.08086 323.00000 0.00310
5492 57.91000 334.28088 336.00000 0.00298
5493 57.92000 334.40634 347.00000 0.00288
5494 57.93000 333.44485 366.00000 0.00273
5495 57.94000 331.44335 373.00000 0.00268
5496 57.95000 328.50212 414.00000 0.00242
5497 57.96000 324.76244 347.00000 0.00288
5498 57.97000 320.39046 331.00000 0.00302
5499 57.98000 315.56062 348.00000 0.00287
5500 57.99000 310.44108 328.00000 0.00305
5501 58.00000 305.18306 307.00000 0.00326
5502 58.01000 299.91450 292.00000 0.00342
5503 58.02000 294.73752 309.00000 0.00324
5504 58.03000 289.72904 312.00000 0.00321
5505 58.04000 284.94318 280.00000 0.00357
5506 58.05000 280.41474 279.00000 0.00358
5507 58.06000 276.16299 280.00000 0.00357
5508 58.07000 272.19520 248.00000 0.00403
5509 58.08000 268.50983 282.00000 0.00355
5510 58.09000 265.09916 268.00000 0.00373
5511 58.10000 261.95139 252.00000 0.00397
5512 58.11000 259.05228 230.00000 0.00435
5513 58.12000 256.38635 233.00000 0.00429
5514 58.13000 253.93769 235.00000 0.00426
5515 58.14000 251.69059 246.00000 0.00407
5516 58.15000 249.62992 244.00000 0.00410
5517 58.16000 247.74130 233.00000 0.00429
5518 58.17000 246.01130 241.00000 0.00415
5519 58.18000 244.42741 253.00000 0.00395
5520 58.19000 242.97813 232.00000 0.00431
5521 58.20000 241.65288 232.00000 0.00431
5522 58.21000 240.44200 233.00000 0.00429
5523 58.22000 239.33669 242.00000 0.00413
5524 58.23000 238.32897 253.00000 0.00395
5525 58.24000 237.41163 252.00000 0.00397
5526 58.25000 236.57816 205.00000 0.00488
5527 58.26000 235.82272 240.00000 0.00417
5528 58.27000 235.14007 219.00000 0.00457
5529 58.28000 234.52553 254.00000 0.00394
5530 58.29000 233.97496 238.00000 0.00420
5531 58.30000 233.48468 240.00000 0.00417
5532 58.31000 233.05147 233.00000 0.00429
5533 58.32000 232.67251 252.00000 0.00397
5534 58.33000 232.34525 233.00000 0.00429
5535 58.34000 232.06791 206.00000 0.00485
5536 58.35000 231.83880 229.00000 0.00437
5537 58.36000 231.65638 229.00000 0.00437
5538 58.37000 231.51954 236.00000 0.00424
5539 58.38000 231.42750 267.00000 0.00375
5540 58.39000 231.37974 252.00000 0.00397
5541 58.40000 231.37604 244.00000 0.00410
5542 58.41000 231.41644 239.00000 0.00418
5543 58.42000 231.50129 244.00000 0.00410
5544 58.43000 231.63119 236.00000 0.00424
5545 58.44000 231.80706 215.00000 0.00465
5546 58.45000 232.03012 215.00000 0.00465
5547 58.46000 232.30188 213.00000 0.00469
5548 58.47000 232.62421 219.00000 0.00457
5549 58.48000 232.99932 242.00000 0.00413
5550 58.49000 233.42980 220.00000 0.00455
5551 58.50000 233.91864 206.00000 0.00485
5552 58.51000 234.46926 221.00000 0.00452
5553 58.52000 235.08554 255.00000 0.00392
5554 58.53000 235.77186 239.00000 0.00418
5555 58.54000 236.53316 255.00000 0.00392
5556 58.55000 237.37493 248.00000 0.00403
5557 58.56000 238.30330 255.00000 0.00392
5558 58.57000 239.32504 224.00000 0.00446
5559 58.58000 240.44765 230.00000 0.00435
5560 58.59000 241.67929 240.00000 0.00417
5561 58.60000 243.02880 265.00000 0.00377
5562 58.61000 244.50612 259.00000 0.00386
5563 58.62000 246.12166 272.00000 0.00368
5564 58.63000 247.88618 225.00000 0.00444
5565 58.64000 249.81104 228.00000 0.00439
5566 58.65000 251.90780 218.00000 0.00459
5567 58.66000 254.18781 234.00000 0.00427
5568 58.67000 256.66169 254.00000 0.00394
5569 58.68000 259.33857 284.00000 0.00352
5570 58.69000 262.22507 251.00000 0.00398
5571 58.70000 265.32401 267.00000 0.00375
5572 58.71000 268.63271 261.00000 0.00383
5573 58.72000 272.14096 289.00000 0.00346
5574 58.73000 275.82867 295.00000 0.00339
5575 58.74000 279.66334 323.00000 0.00310
5576 58.75000 283.59748 290.00000 0.00345
5577 58.76000 287.56660 288.00000 0.00347
5578 58.77000 291.48805 296.00000 0.00338
5579 58.78000 295.26154 302.00000 0.00331
5580 58.79000 298.77197 276.00000 0.00362
5581 58.80000 301.89501 294.00000 0.00340
5582 58.81000 304.50563 310.00000 0.00323
5583 58.82000 306.48880 299.00000 0.00334
5584 58.83000 307.75118 308.00000 0.00325
5585 58.84000 308.23188 314.00000 0.00318
5586 58.85000 307.91003 326.00000 0.00307
5587 58.86000 306.80765 328.00000 0.00305
5588 58.87000 304.98699 359.00000 0.00279
5589 58.88000 302.54304 335.00000 0.00299
5590 58.89000 299.59271 313.00000 0.00319
5591 58.90000 296.26299 316.00000 0.00316
5592 58.91000 292.67992 298.00000 0.00336
5593 58.92000 288.95998 283.00000 0.00353
5594 58.93000 285.20443 318.00000 0.00314
5595 58.94000 281.49654 284.00000 0.00352
5596 58.95000 277.90118 323.00000 0.00310
5597 58.96000 274.46609 286.00000 0.00350
5598 58.97000 271.22409 301.00000 0.00332
5599 58.98000 268.19571 278.00000 0.00360
5600 58.99000 265.39178 261.00000 0.00383
5601 59.00000 262.81587 229.00000 0.00437
5602 59.01000 260.46628 241.00000 0.00415
5603 59.02000 258.33779 224.00000 0.00446
5604 59.03000 256.42292 236.00000 0.00424
5605 59.04000 254.71299 245.00000 0.00408
5606 59.05000 253.19882 235.00000 0.00426
5607 59.06000 251.87134 234.00000 0.00427
5608 59.07000 250.72192 231.00000 0.00433
5609 59.08000 249.74270 240.00000 0.00417
5610 59.09000 248.92667 226.00000 0.00442
5611 59.10000 248.26790 278.00000 0.00360
5612 59.11000 247.76150 242.00000 0.00413
5613 59.12000 247.40372 228.00000 0.00439
5614 59.13000 247.19192 263.00000 0.00380
5615 59.14000 247.12458 248.00000 0.00403
5616 59.15000 247.20126 214.00000 0.00467
5617 59.16000 247.42254 229.00000 0.00437
5618 59.17000 247.78997 250.00000 0.00400
5619 59.18000 248.30594 262.00000 0.00382
5620 59.19000 248.97354 254.00000 0.00394
5621 59.20000 249.79637 231.00000 0.00433
5622 59.21000 250.77822 228.00000 0.00439
5623 59.22000 251.92272 242.00000 0.00413
5624 59.23000 253.23279 255.00000 0.00392
5625 59.24000 254.70997 257.00000 0.00389
5626 59.25000 256.35356 256.00000 0.00391
5627 59.26000 258.15949 241.00000 0.00415
5628 59.27000 260.11906 226.00000 0.00442
5629 59.28000 262.21743 254.00000 0.00394
5630 59.29000 264.43201 252.00000 0.00397
5631 59.30000 266.73097 286.00000 0.00350
5632 59.31000 269.07194 275.00000 0.00364
5633 59.32000 271.40145 292.00000 0.00342
5634 59.33000 273.65538 263.00000 0.00380
5635 59.34000 275.76088 275.00000 0.00364
5636 59.35000 277.63997 289.00000 0.00346
5637 59.36000 279.21491 298.00000 0.00336
5638 59.37000 280.41489 339.00000 0.00295
5639 59.38000 281.18320 286.00000 0.00350
5640 59.39000 281.48367 320.00000 0.00312
5641 59.40000 281.30512 281.00000 0.00356
5642 59.41000 280.66283 289.00000 0.00346
5643 59.42000 279.59661 291.00000 0.00344
5644 59.43000 278.16594 326.00000 0.00307
5645 59.44000 276.44308 319.00000 0.00313
5646 59.45000 274.50550 320.00000 0.00312
5647 59.46000 272.42889 290.00000 0.00345
5648 59.47000 270.28161 314.00000 0.00318
5649 59.48000 268.12086 279.00000 0.00358
5650 59.49000 265.99075 279.00000 0.00358
5651 59.50000 263.92189 271.00000 0.00369
5652 59.51000 261.93218 247.00000 0.00405
5653 59.52000 260.02838 296.00000 0.00338
5654 59.53000 258.20839 249.00000 0.00402
5655 59.54000 256.46369 263.00000 0.00380
5656 59.55000 254.78204 224.00000 0.00446
5657 59.56000 253.15010 230.00000 0.00435
5658 59.57000 251.55562 272.00000 0.00368
5659 59.58000 249.98928 238.00000 0.00420
5660 59.59000 248.44574 238.00000 0.00420
5661 59.60000 246.92387 222.00000 0.00450
5662 59.61000 245.42637 245.00000 0.00408
5663 59.62000 243.95884 221.00000 0.00452
5664 59.63000 242.52861 228.00000 0.00439
5665 59.64000 241.14355 259.00000 0.00386
5666 59.65000 239.81104 237.00000 0.00422
5667 59.66000 238.53726 259.00000 0.00386
5668 59.67000 237.32645 248.00000 0.00403
5669 59.68000 236.18269 253.00000 0.00395
5670 59.69000 235.10770 246.00000 0.00407
5671 59.70000 234.10084 215.00000 0.00465
5672 59.71000 233.16102 223.00000 0.00448
5673 59.72000 232.28627 209.00000 0.00478
5674 59.73000 231.47402 217.00000 0.00461
5675 59.74000 230.72128 245.00000 0.00408
5676 59.75000 230.02488 209.00000 0.00478
5677 59.76000 229.38153 213.00000 0.00469
5678 59.77000 228.78798 221.00000 0.00452
5679 59.78000 228.24109 216.00000 0.00463
5680 59.79000 227.73787 221.00000 0.00452
5681 59.80000 227.27548 241.00000 0.00415
5682 59.81000 226.85132 218.00000 0.00459
5683 59.82000 226.46298 209.00000 0.00478
5684 59.83000 226.10825 204.00000 0.00490
5685 59.84000 225.78514 214.00000 0.00467
5686 59.85000 225.49187 208.00000 0.00481
5687 59.86000 225.22684 195.00000 0.00513
5688 59.87000 224.98863 224.00000 0.00446
5689 59.88000 224.77601 207.00000 0.00483
5690 59.89000 224.58791 233.00000 0.00429
5691 59.90000 224.42341 228.00000 0.00439
5692 59.91000 224.28176 228.00000 0.00439
5693 59.92000 224.16235 231.00000 0.00433
5694 59.93000 224.06472 213.00000 0.00469
5695 59.94000 223.98853 226.00000 0.00442
5696 59.95000 223.93360 229.00000 0.00437
5697 59.96000 223.89987 203.00000 0.00493
5698 59.97000 223.88742 228.00000 0.00439
5699 59.98000 223.89648 224.00000 0.00446
5700 59.99000 223.92740 234.00000 0.00427
5701 60.00000 223.98067 220.00000 0.00455
5702 60.01000 224.05694 197.00000 0.00508
5703 60.02000 224.15699 238.00000 0.00420
5704 60.03000 224.28177 217.00000 0.00461
5705 60.04000 224.43236 231.00000 0.00433
5706 60.05000 224.61000 232.00000 0.00431
5707 60.06000 224.81607 230.00000 0.00435
5708 60.07000 225.05212 232.00000 0.00431
5709 60.08000 225.31979 216.00000 0.00463
5710 60.09000 225.62083 218.00000 0.00459
5711 60.10000 225.95708 238.00000 0.00420
5712 60.11000 226.33037 220.00000 0.00455
5713 60.12000 226.74245 238.00000 0.00420
5714 60.13000 227.19491 233.00000 0.00429
5715 60.14000 227.68902 207.00000 0.00483
5716 60.15000 228.22551 207.00000 0.00483
5717 60.16000 228.80438 214.00000 0.00467
5718 60.17000 229.42452 244.00000 0.00410
5719 60.18000 230.08346 229.00000 0.00437
5720 60.19000 230.77686 246.00000 0.00407
5721 60.20000 231.49819 250.00000 0.00400
5722 60.21000 232.23827 241.00000 0.00415
5723 60.22000 232.98503 252.00000 0.00397
5724 60.23000 233.72343 213.00000 0.00469
5725 60.24000 234.43562 244.00000 0.00410
5726 60.25000 235.10160 225.00000 0.00444
5727 60.26000 235.70023 232.00000 0.00431
5728 60.27000 236.21076 238.00000 0.00420
5729 60.28000 236.61461 226.00000 0.00442
5730 60.29000 236.89728 224.00000 0.00446
5731 60.30000 237.05000 228.00000 0.00439
5732 60.31000 237.07078 222.00000 0.00450
5733 60.32000 236.96479 228.00000 0.00439
5734 60.33000 236.74376 232.00000 0.00431
5735 60.34000 236.42468 265.00000 0.00377
5736 60.35000 236.02810 253.00000 0.00395
5737 60.36000 235.57615 207.00000 0.00483
5738 60.37000 235.09081 212.00000 0.00472
5739 60.38000 234.59256 219.00000 0.00457
5740 60.39000 234.09945 232.00000 0.00431
5741 60.40000 233.62663 253.00000 0.00395
5742 60.41000 233.18626 236.00000 0.00424
5743 60.42000 232.78778 226.00000 0.00442
5744 60.43000 232.43818 212.00000 0.00472
5745 60.44000 232.14245 219.00000 0.00457
5746 60.45000 231.90397 238.00000 0.00420
5747 60.46000 231.72462 205.00000 0.00488
5748 60.47000 231.60592 237.00000 0.00422
5749 60.48000 231.55166 250.00000 0.00400
5750 60.49000 231.56058 234.00000 0.00427
5751 60.50000 231.63339 217.00000 0.00461
5752 60.51000 231.77090 228.00000 0.00439
5753 60.52000 231.97412 241.00000 0.00415
5754 60.53000 232.24439 267.00000 0.00375
5755 60.54000 232.58338 223.00000 0.00448
5756 60.55000 232.99321 235.00000 0.00426
5757 60.56000 233.47646 235.00000 0.00426
5758 60.57000 234.03619 239.00000 0.00418
5759 60.58000 234.67598 234.00000 0.00427
5760 60.59000 235.39993 227.00000 0.00441
5761 60.60000 236.21264 254.00000 0.00394
5762 60.61000 237.11918 212.00000 0.00472
5763 60.62000 238.12507 205.00000 0.00488
5764 60.63000 239.23614 262.00000 0.00382
5765 60.64000 240.45841 252.00000 0.00397
5766 60.65000 241.79794 216.00000 0.00463
5767 60.66000 243.26046 221.00000 0.00452
5768 60.67000 244.85104 236.00000 0.00424
5769 60.68000 246.57359 240.00000 0.00417
5770 60.69000 248.43013 278.00000 0.00360
5771 60.70000 250.41998 233.00000 0.00429
5772 60.71000 252.53873 251.00000 0.00398
5773 60.72000 254.77696 255.00000 0.00392
5774 60.73000 257.11894 275.00000 0.00364
5775 60.74000 259.54114 255.00000 0.00392
5776 60.75000 262.01095 251.00000 0.00398
5777 60.76000 264.48567 263.00000 0.00380
5778 60.77000 266.91215 267.00000 0.00375
5779 60.78000 269.22749 261.00000 0.00383
5780 60.79000 271.36095 256.00000 0.00391
5781 60.80000 273.23753 285.00000 0.00351
5782 60.81000 274.78291 268.00000 0.00373
5783 60.82000 275.92964 251.00000 0.00398
5784 60.83000 276.62358 279.00000 0.00358
5785 60.84000 276.82972 287.00000 0.00348
5786 60.85000 276.53621 304.00000 0.00329
5787 60.86000 275.75581 288.00000 0.00347
5788 60.87000 274.52441 285.00000 0.00351
5789 60.88000 272.89696 292.00000 0.00342
5790 60.89000 270.94153 293.00000 0.00341
5791 60.90000 268.73280 256.00000 0.00391
5792 60.91000 266.34586 266.00000 0.00376
5793 60.92000 263.85115 225.00000 0.00444
5794 60.93000 261.31103 288.00000 0.00347
5795 60.94000 258.77781 264.00000 0.00379
5796 60.95000 256.29323 285.00000 0.00351
5797 60.96000 253.88886 253.00000 0.00395
5798 60.97000 251.58714 216.00000 0.00463
5799 60.98000 249.40281 245.00000 0.00408
5800 60.99000 247.34427 246.00000 0.00407
5801 61.00000 245.41506 224.00000 0.00446
5802 61.01000 243.61497 226.00000 0.00442
5803 61.02000 241.94118 221.00000 0.00452
5804 61.03000 240.38899 215.00000 0.00465
5805 61.04000 238.95257 213.00000 0.00469
5806 61.05000 237.62536 229.00000 0.00437
5807 61.06000 236.40051 220.00000 0.00455
5808 61.07000 235.27113 260.00000 0.00385
5809 61.08000 234.23045 215.00000 0.00465
5810 61.09000 233.27198 240.00000 0.00417
5811 61.10000 232.38954 241.00000 0.00415
5812 61.11000 231.57738 245.00000 0.00408
5813 61.12000 230.83010 222.00000 0.00450
5814 61.13000 230.14276 218.00000 0.00459
5815 61.14000 229.51081 215.00000 0.00465
5816 61.15000 228.93006 220.00000 0.00455
5817 61.16000 228.39673 201.00000 0.00498
5818 61.17000 227.90735 213.00000 0.00469
5819 61.18000 227.45880 256.00000 0.00391
5820 61.19000 227.04826 215.00000 0.00465
5821 61.20000 226.67318 221.00000 0.00452
5822 61.21000 226.33126 210.00000 0.00476
5823 61.22000 226.02046 227.00000 0.00441
5824 61.23000 225.73895 226.00000 0.00442
5825 61.24000 225.48510 255.00000 0.00392
5826 61.25000 225.25749 204.00000 0.00490
5827 61.26000 225.05484 232.00000 0.00431
5828 61.27000 224.87606 248.00000 0.00403
5829 61.28000 224.72022 223.00000 0.00448
5830 61.29000 224.58652 216.00000 0.00463
5831 61.30000 224.47430 227.00000 0.00441
5832 61.31000 224.38304 206.00000 0.00485
5833 61.32000 224.31234 220.00000 0.00455
5834 61.33000 224.26193 244.00000 0.00410
5835 61.34000 224.23167 222.00000 0.00450
5836 61.35000 224.22153 241.00000 0.00415
5837 61.36000 224.23160 204.00000 0.00490
5838 61.37000 224.26209 230.00000 0.00435
5839 61.38000 224.31335 239.00000 0.00418
5840 61.39000 224.38584 237.00000 0.00422
5841 61.40000 224.48017 211.00000 0.00474
5842 61.41000 224.59705 235.00000 0.00426
5843 61.42000 224.73738 229.00000 0.00437
5844 61.43000 224.90216 227.00000 0.00441
5845 61.44000 225.09257 246.00000 0.00407
5846 61.45000 225.30994 223.00000 0.00448
5847 61.46000 225.55576 217.00000 0.00461
5848 61.47000 225.83169 224.00000 0.00446
5849 61.48000 226.13955 222.00000 0.00450
5850 61.49000 226.48132 234.00000 0.00427
5851 61.50000 226.85915 230.00000 0.00435
5852 61.51000 227.27532 228.00000 0.00439
5853 61.52000 227.73220 221.00000 0.00452
5854 61.53000 228.23227 221.00000 0.00452
5855 61.54000 228.77796 236.00000 0.00424
5856 61.55000 229.37164 222.00000 0.00450
5857 61.56000 230.01546 235.00000 0.00426
5858 61.57000 230.71120 238.00000 0.00420
5859 61.58000 231.46001 239.00000 0.00418
5860 61.59000 232.26219 238.00000 0.00420
5861 61.60000 233.11679 246.00000 0.00407
5862 61.61000 234.02123 240.00000 0.00417
5863 61.62000 234.97085 222.00000 0.00450
5864 61.63000 235.95837 230.00000 0.00435
5865 61.64000 236.97340 227.00000 0.00441
5866 61.65000 238.00207 231.00000 0.00433
5867 61.66000 239.02679 217.00000 0.00461
5868 61.67000 240.02626 245.00000 0.00408
5869 61.68000 240.97598 240.00000 0.00417
5870 61.69000 241.84925 274.00000 0.00365
5871 61.70000 242.61862 274.00000 0.00365
5872 61.71000 243.25796 254.00000 0.00394
5873 61.72000 243.74462 251.00000 0.00398
5874 61.73000 244.06181 264.00000 0.00379
5875 61.74000 244.20034 263.00000 0.00380
5876 61.75000 244.15975 289.00000 0.00346
5877 61.76000 243.94828 262.00000 0.00382
5878 61.77000 243.58155 251.00000 0.00398
5879 61.78000 243.08317 262.00000 0.00382
5880 61.79000 242.48174 261.00000 0.00383
5881 61.80000 241.80358 246.00000 0.00407
5882 61.81000 241.07659 270.00000 0.00370
5883 61.82000 240.32668 274.00000 0.00365
5884 61.83000 239.57663 260.00000 0.00385
5885 61.84000 238.84563 224.00000 0.00446
5886 61.85000 238.14910 240.00000 0.00417
5887 61.86000 237.49895 246.00000 0.00407
5888 61.87000 236.90395 256.00000 0.00391
5889 61.88000 236.37027 218.00000 0.00459
5890 61.89000 235.90197 254.00000 0.00394
5891 61.90000 235.50150 240.00000 0.00417
5892 61.91000 235.17011 236.00000 0.00424
5893 61.92000 234.90825 235.00000 0.00426
5894 61.93000 234.71588 239.00000 0.00418
5895 61.94000 234.59263 238.00000 0.00420
5896 61.95000 234.53809 245.00000 0.00408
5897 61.96000 234.55189 208.00000 0.00481
5898 61.97000 234.63382 241.00000 0.00415
5899 61.98000 234.78392 198.00000 0.00505
5900 61.99000 235.00254 221.00000 0.00452
5901 62.00000 235.29038 231.00000 0.00433
5902 62.01000 235.64851 224.00000 0.00446
5903 62.02000 236.07842 233.00000 0.00429
5904 62.03000 236.58200 241.00000 0.00415
5905 62.04000 237.16157 235.00000 0.00426
5906 62.05000 237.81984 238.00000 0.00420
5907 62.06000 238.55993 242.00000 0.00413
5908 62.07000 239.38530 220.00000 0.00455
5909 62.08000 240.29971 257.00000 0.00389
5910 62.09000 241.30716 245.00000 0.00408
5911 62.10000 242.41177 229.00000 0.00437
5912 62.11000 243.61760 250.00000 0.00400
5913 62.12000 244.92854 239.00000 0.00418
5914 62.13000 246.34798 234.00000 0.00427
5915 62.14000 247.87860 232.00000 0.00431
5916 62.15000 249.52198 252.00000 0.00397
5917 62.16000 251.27826 234.00000 0.00427
5918 62.17000 253.14575 251.00000 0.00398
5919 62.18000 255.12058 268.00000 0.00373
5920 62.19000 257.19649 277.00000 0.00361
5921 62.20000 259.36477 279.00000 0.00358
5922 62.21000 261.61447 250.00000 0.00400
5923 62.22000 263.93298 262.00000 0.00382
5924 62.23000 266.30697 255.00000 0.00392
5925 62.24000 268.72369 293.00000 0.00341
5926 62.25000 271.17243 288.00000 0.00347
5927 62.26000 273.64603 302.00000 0.00331
5928 62.27000 276.14199 314.00000 0.00318
5929 62.28000 278.66296 300.00000 0.00333
5930 62.29000 281.21632 293.00000 0.00341
5931 62.30000 283.81278 314.00000 0.00318
5932 62.31000 286.46398 331.00000 0.00302
5933 62.32000 289.17939 321.00000 0.00312
5934 62.33000 291.96276 306.00000 0.00327
5935 62.34000 294.80859 286.00000 0.00350
5936 62.35000 297.69889 325.00000 0.00308
5937 62.36000 300.60062 347.00000 0.00288
5938 62.37000 303.46423 375.00000 0.00267
5939 62.38000 306.22357 333.00000 0.00300
5940 62.39000 308.79764 309.00000 0.00324
5941 62.40000 311.09423 302.00000 0.00331
5942 62.41000 313.01566 333.00000 0.00300
5943 62.42000 314.46630 347.00000 0.00288
5944 62.43000 315.36112 288.00000 0.00347
5945 62.44000 315.63419 342.00000 0.00292
5946 62.45000 315.24590 328.00000 0.00305
5947 62.46000 314.18749 336.00000 0.00298
5948 62.47000 312.48223 368.00000 0.00272
5949 62.48000 310.18282 343.00000 0.00292
5950 62.49000 307.36563 366.00000 0.00273
5951 62.50000 304.12321 333.00000 0.00300
5952 62.51000 300.55596 321.00000 0.00312
5953 62.52000 296.76430 323.00000 0.00310
5954 62.53000 292.84223 317.00000 0.00315
5955 62.54000 288.87228 315.00000 0.00317
5956 62.55000 284.92003 314.00000 0.00318
5957 62.56000 281.06273 297.00000 0.00337
5958 62.57000 277.33133 309.00000 0.00324
5959 62.58000 273.75736 289.00000 0.00346
5960 62.59000 270.36195 258.00000 0.00388
5961 62.60000 267.15766 249.00000 0.00402
5962 62.61000 264.15025 281.00000 0.00356
5963 62.62000 261.34030 248.00000 0.00403
5964 62.63000 258.72456 253.00000 0.00395
5965 62.64000 256.29710 272.00000 0.00368
5966 62.65000 254.05019 223.00000 0.00448
5967 62.66000 251.97504 229.00000 0.00437
5968 62.67000 250.06228 262.00000 0.00382
5969 62.68000 248.30241 256.00000 0.00391
5970 62.69000 246.68604 253.00000 0.00395
5971 62.70000 245.20410 240.00000 0.00417
5972 62.71000 243.84800 253.00000 0.00395
5973 62.72000 242.60966 205.00000 0.00488
5974 62.73000 241.48161 234.00000 0.00427
5975 62.74000 240.45698 251.00000 0.00398
5976 62.75000 239.52938 215.00000 0.00465
5977 62.76000 238.69311 253.00000 0.00395
5978 62.77000 237.94303 263.00000 0.00380
5979 62.78000 237.27454 250.00000 0.00400
5980 62.79000 236.68337 256.00000 0.00391
5981 62.80000 236.16464 242.00000 0.00413
5982 62.81000 235.71613 229.00000 0.00437
5983 62.82000 235.34351 215.00000 0.00465
5984 62.83000 235.03866 234.00000 0.00427
5985 62.84000 234.80017 218.00000 0.00459
5986 62.85000 234.62707 259.00000 0.00386
5987 62.86000 234.51883 204.00000 0.00490
5988 62.87000 234.47531 265.00000 0.00377
5989 62.88000 234.49680 239.00000 0.00418
5990 62.89000 234.58394 222.00000 0.00450
5991 62.90000 234.73774 239.00000 0.00418
5992 62.91000 234.95957 206.00000 0.00485
5993 62.92000 235.25108 238.00000 0.00420
5994 62.93000 235.61419 252.00000 0.00397
5995 62.94000 236.05100 243.00000 0.00412
5996 62.95000 236.56375 234.00000 0.00427
5997 62.96000 237.15466 241.00000 0.00415
5998 62.97000 237.82582 243.00000 0.00412
5999 62.98000 238.57897 237.00000 0.00422
6000 62.99000 239.41523 240.00000 0.00417
6001 63.00000 240.33483 210.00000 0.00476
6002 63.01000 241.33667 235.00000 0.00426
6003 63.02000 242.41785 274.00000 0.00365
6004 63.03000 243.57313 243.00000 0.00412
6005 63.04000 244.79435 232.00000 0.00431
6006 63.05000 246.06975 226.00000 0.00442
6007 63.06000 247.38350 249.00000 0.00402
6008 63.07000 248.71519 245.00000 0.00408
6009 63.08000 250.03975 257.00000 0.00389
6010 63.09000 251.32766 222.00000 0.00450
6011 63.10000 252.54581 242.00000 0.00413
6012 63.11000 253.65890 259.00000 0.00386
6013 63.12000 254.63152 248.00000 0.00403
6014 63.13000 255.43076 272.00000 0.00368
6015 63.14000 256.02902 263.00000 0.00380
6016 63.15000 256.40668 256.00000 0.00391
6017 63.16000 256.55423 272.00000 0.00368
6018 63.17000 256.47334 250.00000 0.00400
6019 63.18000 256.17682 266.00000 0.00376
6020 63.19000 255.68737 277.00000 0.00361
6021 63.20000 255.03543 263.00000 0.00380
6022 63.21000 254.25638 285.00000 0.00351
6023 63.22000 253.38778 274.00000 0.00365
6024 63.23000 252.46681 237.00000 0.00422
6025 63.24000 251.52827 269.00000 0.00372
6026 63.25000 250.60325 278.00000 0.00360
6027 63.26000 249.71844 273.00000 0.00366
6028 63.27000 248.89592 231.00000 0.00433
6029 63.28000 248.15346 239.00000 0.00418
6030 63.29000 247.50494 231.00000 0.00433
6031 63.30000 246.96095 243.00000 0.00412
6032 63.31000 246.52952 243.00000 0.00412
6033 63.32000 246.21664 245.00000 0.00408
6034 63.33000 246.02690 249.00000 0.00402
6035 63.34000 245.96395 246.00000 0.00407
6036 63.35000 246.03088 262.00000 0.00382
6037 63.36000 246.23064 252.00000 0.00397
6038 63.37000 246.56621 251.00000 0.00398
6039 63.38000 247.04087 229.00000 0.00437
6040 63.39000 247.65834 265.00000 0.00377
6041 63.40000 248.42290 242.00000 0.00413
6042 63.41000 249.33946 222.00000 0.00450
6043 63.42000 250.41364 228.00000 0.00439
6044 63.43000 251.65171 267.00000 0.00375
6045 63.44000 253.06067 254.00000 0.00394
6046 63.45000 254.64806 258.00000 0.00388
6047 63.46000 256.42193 242.00000 0.00413
6048 63.47000 258.39062 256.00000 0.00391
6049 63.48000 260.56247 271.00000 0.00369
6050 63.49000 262.94548 252.00000 0.00397
6051 63.50000 265.54677 254.00000 0.00394
6052 63.51000 268.37194 269.00000 0.00372
6053 63.52000 271.42421 276.00000 0.00362
6054 63.53000 274.70331 277.00000 0.00361
6055 63.54000 278.20423 275.00000 0.00364
6056 63.55000 281.91567 278.00000 0.00360
6057 63.56000 285.81824 251.00000 0.00398
6058 63.57000 289.88265 299.00000 0.00334
6059 63.58000 294.06788 264.00000 0.00379
6060 63.59000 298.31954 275.00000 0.00364
6061 63.60000 302.56889 305.00000 0.00328
6062 63.61000 306.73283 309.00000 0.00324
6063 63.62000 310.71516 338.00000 0.00296
6064 63.63000 314.40975 333.00000 0.00300
6065 63.64000 317.70553 369.00000 0.00271
6066 63.65000 320.49337 331.00000 0.00302
6067 63.66000 322.67425 334.00000 0.00299
6068 63.67000 324.16780 361.00000 0.00277
6069 63.68000 324.91997 393.00000 0.00254
6070 63.69000 324.90854 352.00000 0.00284
6071 63.70000 324.14540 341.00000 0.00293
6072 63.71000 322.67518 340.00000 0.00294
6073 63.72000 320.57038 339.00000 0.00295
6074 63.73000 317.92397 343.00000 0.00292
6075 63.74000 314.84058 357.00000 0.00280
6076 63.75000 311.42776 325.00000 0.00308
6077 63.76000 307.78823 337.00000 0.00297
6078 63.77000 304.01399 333.00000 0.00300
6079 63.78000 300.18255 353.00000 0.00283
6080 63.79000 296.35513 267.00000 0.00375
6081 63.80000 292.57662 291.00000 0.00344
6082 63.81000 288.87691 272.00000 0.00368
6083 63.82000 285.27300 273.00000 0.00366
6084 63.83000 281.77179 238.00000 0.00420
6085 63.84000 278.37644 273.00000 0.00366
6086 63.85000 275.08192 254.00000 0.00394
6087 63.86000 271.88351 262.00000 0.00382
6088 63.87000 268.77710 306.00000 0.00327
6089 63.88000 265.76038 258.00000 0.00388
6090 63.89000 262.83337 241.00000 0.00415
6091 63.90000 259.99829 237.00000 0.00422
6092 63.91000 257.25909 258.00000 0.00388
6093 63.92000 254.62062 227.00000 0.00441
6094 63.93000 252.08788 244.00000 0.00410
6095 63.94000 249.66528 231.00000 0.00433
6096 63.95000 247.35615 255.00000 0.00392
6097 63.96000 245.16247 236.00000 0.00424
6098 63.97000 243.08472 257.00000 0.00389
6099 63.98000 241.12200 225.00000 0.00444
6100 63.99000 239.27211 250.00000 0.00400
6101 64.00000 237.53186 235.00000 0.00426
6102 64.01000 235.89721 241.00000 0.00415
6103 64.02000 234.36357 209.00000 0.00478
6104 64.03000 232.92598 218.00000 0.00459
6105 64.04000 231.57928 231.00000 0.00433
6106 64.05000 230.31827 244.00000 0.00410
6107 64.06000 229.13780 222.00000 0.00450
6108 64.07000 228.03288 215.00000 0.00465
6109 64.08000 226.99871 226.00000 0.00442
6110 64.09000 226.03074 221.00000 0.00452
6111 64.10000 225.12469 221.00000 0.00452
6112 64.11000 224.27655 225.00000 0.00444
6113 64.12000 223.48263 260.00000 0.00385
6114 64.13000 222.73947 215.00000 0.00465
6115 64.14000 222.04393 227.00000 0.00441
6116 64.15000 221.39312 221.00000 0.00452
6117 64.16000 220.78441 225.00000 0.00444
6118 64.17000 220.21539 220.00000 0.00455
6119 64.18000 219.68391 254.00000 0.00394
6120 64.19000 219.18803 234.00000 0.00427
6121 64.20000 218.72599 205.00000 0.00488
6122 64.21000 218.29626 234.00000 0.00427
6123 64.22000 217.89746 208.00000 0.00481
6124 64.23000 217.52842 205.00000 0.00488
6125 64.24000 217.18809 190.00000 0.00526
6126 64.25000 216.87561 217.00000 0.00461
6127 64.26000 216.59026 238.00000 0.00420
6128 64.27000 216.33145 227.00000 0.00441
6129 64.28000 216.09873 224.00000 0.00446
6130 64.29000 215.89177 213.00000 0.00469
6131 64.30000 215.71036 180.00000 0.00556
6132 64.31000 215.55439 216.00000 0.00463
6133 64.32000 215.42387 228.00000 0.00439
6134 64.33000 215.31885 222.00000 0.00450
6135 64.34000 215.23948 213.00000 0.00469
6136 64.35000 215.18594 213.00000 0.00469
6137 64.36000 215.15842 196.00000 0.00510
6138 64.37000 215.15707 233.00000 0.00429
6139 64.38000 215.18198 209.00000 0.00478
6140 64.39000 215.23311 245.00000 0.00408
6141 64.40000 215.31019 222.00000 0.00450
6142 64.41000 215.41267 218.00000 0.00459
6143 64.42000 215.53956 182.00000 0.00549
6144 64.43000 215.68939 237.00000 0.00422
6145 64.44000 215.85998 202.00000 0.00495
6146 64.45000 216.04840 207.00000 0.00483
6147 64.46000 216.25082 201.00000 0.00498
6148 64.47000 216.46241 237.00000 0.00422
6149 64.48000 216.67738 220.00000 0.00455
6150 64.49000 216.88900 206.00000 0.00485
6151 64.50000 217.08980 214.00000 0.00467
6152 64.51000 217.27193 213.00000 0.00469
6153 64.52000 217.42754 209.00000 0.00478
6154 64.53000 217.54932 225.00000 0.00444
6155 64.54000 217.63114 243.00000 0.00412
6156 64.55000 217.66863 219.00000 0.00457
6157 64.56000 217.65958 212.00000 0.00472
6158 64.57000 217.60409 249.00000 0.00402
6159 64.58000 217.50372 207.00000 0.00483
6160 64.59000 217.36529 223.00000 0.00448
6161 64.60000 217.19862 247.00000 0.00405
6162 64.61000 217.00871 239.00000 0.00418
6163 64.62000 216.80424 225.00000 0.00444
6164 64.63000 216.59395 223.00000 0.00448
6165 64.64000 216.38622 233.00000 0.00429
6166 64.65000 216.18877 230.00000 0.00435
6167 64.66000 216.00843 200.00000 0.00500
6168 64.67000 215.85110 210.00000 0.00476
6169 64.68000 215.72178 219.00000 0.00457
6170 64.69000 215.62465 234.00000 0.00427
6171 64.70000 215.56317 224.00000 0.00446
6172 64.71000 215.54029 203.00000 0.00493
6173 64.72000 215.55849 205.00000 0.00488
6174 64.73000 215.61999 216.00000 0.00463
6175 64.74000 215.72684 240.00000 0.00417
6176 64.75000 215.88100 208.00000 0.00481
6177 64.76000 216.08446 215.00000 0.00465
6178 64.77000 216.33927 201.00000 0.00498
6179 64.78000 216.64762 196.00000 0.00510
6180 64.79000 217.01187 187.00000 0.00535
6181 64.80000 217.43459 215.00000 0.00465
6182 64.81000 217.91853 199.00000 0.00503
6183 64.82000 218.46669 212.00000 0.00472
6184 64.83000 219.08218 234.00000 0.00427
6185 64.84000 219.76848 220.00000 0.00455
6186 64.85000 220.52935 203.00000 0.00493
6187 64.86000 221.36811 204.00000 0.00490
6188 64.87000 222.28827 227.00000 0.00441
6189 64.88000 223.29312 256.00000 0.00391
6190 64.89000 224.38556 227.00000 0.00441
6191 64.90000 225.56783 220.00000 0.00455
6192 64.91000 226.84118 213.00000 0.00469
6193 64.92000 228.20547 241.00000 0.00415
6194 64.93000 229.65870 213.00000 0.00469
6195 64.94000 231.19637 209.00000 0.00478
6196 64.95000 232.81088 227.00000 0.00441
6197 64.96000 234.49082 216.00000 0.00463
6198 64.97000 236.22026 252.00000 0.00397
6199 64.98000 237.97813 194.00000 0.00515
6200 64.99000 239.73781 213.00000 0.00469
6201 65.00000 241.46703 208.00000 0.00481
6202 65.01000 243.12824 207.00000 0.00483
6203 65.02000 244.67966 238.00000 0.00420
6204 65.03000 246.07692 236.00000 0.00424
6205 65.04000 247.27552 238.00000 0.00420
6206 65.05000 248.23379 227.00000 0.00441
6207 65.06000 248.91614 251.00000 0.00398
6208 65.07000 249.29615 238.00000 0.00420
6209 65.08000 249.35908 237.00000 0.00422
6210 65.09000 249.10326 258.00000 0.00388
6211 65.10000 248.54033 262.00000 0.00382
6212 65.11000 247.69395 248.00000 0.00403
6213 65.12000 246.59751 265.00000 0.00377
6214 65.13000 245.29108 254.00000 0.00394
6215 65.14000 243.81803 258.00000 0.00388
6216 65.15000 242.22191 248.00000 0.00403
6217 65.16000 240.54381 228.00000 0.00439
6218 65.17000 238.82046 229.00000 0.00437
6219 65.18000 237.08303 223.00000 0.00448
6220 65.19000 235.35671 229.00000 0.00437
6221 65.20000 233.66081 224.00000 0.00446
6222 65.21000 232.00924 208.00000 0.00481
6223 65.22000 230.41136 238.00000 0.00420
6224 65.23000 228.87286 226.00000 0.00442
6225 65.24000 227.39671 221.00000 0.00452
6226 65.25000 225.98405 215.00000 0.00465
6227 65.26000 224.63488 222.00000 0.00450
6228 65.27000 223.34863 199.00000 0.00503
6229 65.28000 222.12455 215.00000 0.00465
6230 65.29000 220.96190 223.00000 0.00448
6231 65.30000 219.86002 235.00000 0.00426
6232 65.31000 218.81833 231.00000 0.00433
6233 65.32000 217.83623 233.00000 0.00429
6234 65.33000 216.91302 210.00000 0.00476
6235 65.34000 216.04788 205.00000 0.00488
6236 65.35000 215.23977 230.00000 0.00435
6237 65.36000 214.48744 196.00000 0.00510
6238 65.37000 213.78945 212.00000 0.00472
6239 65.38000 213.14422 208.00000 0.00481
6240 65.39000 212.55002 207.00000 0.00483
6241 65.40000 212.00508 231.00000 0.00433
6242 65.41000 211.50759 222.00000 0.00450
6243 65.42000 211.05580 212.00000 0.00472
6244 65.43000 210.64799 242.00000 0.00413
6245 65.44000 210.28255 197.00000 0.00508
6246 65.45000 209.95802 198.00000 0.00505
6247 65.46000 209.67306 222.00000 0.00450
6248 65.47000 209.42648 189.00000 0.00529
6249 65.48000 209.21731 209.00000 0.00478
6250 65.49000 209.04470 205.00000 0.00488
6251 65.50000 208.90803 228.00000 0.00439
6252 65.51000 208.80686 191.00000 0.00524
6253 65.52000 208.74095 196.00000 0.00510
6254 65.53000 208.71023 222.00000 0.00450
6255 65.54000 208.71486 211.00000 0.00474
6256 65.55000 208.75519 211.00000 0.00474
6257 65.56000 208.83179 221.00000 0.00452
6258 65.57000 208.94543 237.00000 0.00422
6259 65.58000 209.09709 214.00000 0.00467
6260 65.59000 209.28799 209.00000 0.00478
6261 65.60000 209.51955 210.00000 0.00476
6262 65.61000 209.79344 199.00000 0.00503
6263 65.62000 210.11155 226.00000 0.00442
6264 65.63000 210.47602 201.00000 0.00498
6265 65.64000 210.88923 200.00000 0.00500
6266 65.65000 211.35379 202.00000 0.00495
6267 65.66000 211.87257 218.00000 0.00459
6268 65.67000 212.44865 204.00000 0.00490
6269 65.68000 213.08533 210.00000 0.00476
6270 65.69000 213.78612 213.00000 0.00469
6271 65.70000 214.55466 240.00000 0.00417
6272 65.71000 215.39470 216.00000 0.00463
6273 65.72000 216.31002 233.00000 0.00429
6274 65.73000 217.30429 198.00000 0.00505
6275 65.74000 218.38100 216.00000 0.00463
6276 65.75000 219.54318 233.00000 0.00429
6277 65.76000 220.79323 240.00000 0.00417
6278 65.77000 222.13259 212.00000 0.00472
6279 65.78000 223.56133 219.00000 0.00457
6280 65.79000 225.07773 217.00000 0.00461
6281 65.80000 226.67773 234.00000 0.00427
6282 65.81000 228.35430 233.00000 0.00429
6283 65.82000 230.09677 249.00000 0.00402
6284 65.83000 231.88987 210.00000 0.00476
6285 65.84000 233.71477 219.00000 0.00457
6286 65.85000 235.54668 233.00000 0.00429
6287 65.86000 237.35455 235.00000 0.00426
6288 65.87000 239.10272 245.00000 0.00408
6289 65.88000 240.75115 242.00000 0.00413
6290 65.89000 242.25690 221.00000 0.00452
6291 65.90000 243.57626 238.00000 0.00420
6292 65.91000 244.66743 229.00000 0.00437
6293 65.92000 245.49358 217.00000 0.00461
6294 65.93000 246.02590 260.00000 0.00385
6295 65.94000 246.24617 257.00000 0.00389
6296 65.95000 246.14858 289.00000 0.00346
6297 65.96000 245.74033 274.00000 0.00365
6298 65.97000 245.04098 258.00000 0.00388
6299 65.98000 244.08070 250.00000 0.00400
6300 65.99000 242.89766 261.00000 0.00383
6301 66.00000 241.53493 233.00000 0.00429
6302 66.01000 240.03751 270.00000 0.00370
6303 66.02000 238.44957 251.00000 0.00398
6304 66.03000 236.81234 242.00000 0.00413
6305 66.04000 235.16270 256.00000 0.00391
6306 66.05000 233.53238 259.00000 0.00386
6307 66.06000 231.94770 228.00000 0.00439
6308 66.07000 230.42978 225.00000 0.00444
6309 66.08000 228.99495 225.00000 0.00444
6310 66.09000 227.65545 235.00000 0.00426
6311 66.10000 226.42001 219.00000 0.00457
6312 66.11000 225.29460 229.00000 0.00437
6313 66.12000 224.28299 200.00000 0.00500
6314 66.13000 223.38733 227.00000 0.00441
6315 66.14000 222.60862 203.00000 0.00493
6316 66.15000 221.94705 198.00000 0.00505
6317 66.16000 221.40235 222.00000 0.00450
6318 66.17000 220.97402 220.00000 0.00455
6319 66.18000 220.66148 228.00000 0.00439
6320 66.19000 220.46425 199.00000 0.00503
6321 66.20000 220.38200 216.00000 0.00463
6322 66.21000 220.41459 231.00000 0.00433
6323 66.22000 220.56209 213.00000 0.00469
6324 66.23000 220.82474 215.00000 0.00465
6325 66.24000 221.20289 214.00000 0.00467
6326 66.25000 221.69690 198.00000 0.00505
6327 66.26000 222.30694 234.00000 0.00427
6328 66.27000 223.03280 219.00000 0.00457
6329 66.28000 223.87364 220.00000 0.00455
6330 66.29000 224.82761 216.00000 0.00463
6331 66.30000 225.89144 239.00000 0.00418
6332 66.31000 227.05996 204.00000 0.00490
6333 66.32000 228.32551 217.00000 0.00461
6334 66.33000 229.67735 221.00000 0.00452
6335 66.34000 231.10095 239.00000 0.00418
6336 66.35000 232.57747 235.00000 0.00426
6337 66.36000 234.08317 232.00000 0.00431
6338 66.37000 235.58917 255.00000 0.00392
6339 66.38000 237.06150 219.00000 0.00457
6340 66.39000 238.46162 213.00000 0.00469
6341 66.40000 239.74749 237.00000 0.00422
6342 66.41000 240.87536 230.00000 0.00435
6343 66.42000 241.80203 241.00000 0.00415
6344 66.43000 242.48769 240.00000 0.00417
6345 66.44000 242.89881 247.00000 0.00405
6346 66.45000 243.01094 272.00000 0.00368
6347 66.46000 242.81079 269.00000 0.00372
6348 66.47000 242.29749 245.00000 0.00408
6349 66.48000 241.48258 240.00000 0.00417
6350 66.49000 240.38890 264.00000 0.00379
6351 66.50000 239.04846 249.00000 0.00402
6352 66.51000 237.49976 248.00000 0.00403
6353 66.52000 235.78477 226.00000 0.00442
6354 66.53000 233.94612 256.00000 0.00391
6355 66.54000 232.02475 264.00000 0.00379
6356 66.55000 230.05812 213.00000 0.00469
6357 66.56000 228.07902 223.00000 0.00448
6358 66.57000 226.11506 238.00000 0.00420
6359 66.58000 224.18854 239.00000 0.00418
6360 66.59000 222.31709 205.00000 0.00488
6361 66.60000 220.51337 220.00000 0.00455
6362 66.61000 218.78633 217.00000 0.00461
6363 66.62000 217.14164 206.00000 0.00485
6364 66.63000 215.58232 222.00000 0.00450
6365 66.64000 214.10930 202.00000 0.00495
6366 66.65000 212.72191 215.00000 0.00465
6367 66.66000 211.41830 217.00000 0.00461
6368 66.67000 210.19579 203.00000 0.00493
6369 66.68000 209.05111 232.00000 0.00431
6370 66.69000 207.98064 228.00000 0.00439
6371 66.70000 206.98056 201.00000 0.00498
6372 66.71000 206.04699 223.00000 0.00448
6373 66.72000 205.17609 195.00000 0.00513
6374 66.73000 204.36408 203.00000 0.00493
6375 66.74000 203.60735 246.00000 0.00407
6376 66.75000 202.90243 212.00000 0.00472
6377 66.76000 202.24606 221.00000 0.00452
6378 66.77000 201.63516 218.00000 0.00459
6379 66.78000 201.06688 202.00000 0.00495
6380 66.79000 200.53854 197.00000 0.00508
6381 66.80000 200.04769 206.00000 0.00485
6382 66.81000 199.59206 196.00000 0.00510
6383 66.82000 199.16952 205.00000 0.00488
6384 66.83000 198.77826 213.00000 0.00469
6385 66.84000 198.41664 219.00000 0.00457
6386 66.85000 198.08302 217.00000 0.00461
6387 66.86000 197.77599 194.00000 0.00515
6388 66.87000 197.49431 211.00000 0.00474
6389 66.88000 197.23687 195.00000 0.00513
6390 66.89000 197.00270 218.00000 0.00459
6391 66.90000 196.79097 183.00000 0.00546
6392 66.91000 196.60096 196.00000 0.00510
6393 66.92000 196.43206 208.00000 0.00481
6394 66.93000 196.28378 188.00000 0.00532
6395 66.94000 196.15576 213.00000 0.00469
6396 66.95000 196.04771 214.00000 0.00467
6397 66.96000 195.95947 206.00000 0.00485
6398 66.97000 195.89097 195.00000 0.00513
6399 66.98000 195.84223 203.00000 0.00493
6400 66.99000 195.81337 198.00000 0.00505
6401 67.00000 195.80460 198.00000 0.00505
6402 67.01000 195.81623 201.00000 0.00498
6403 67.02000 195.84863 214.00000 0.00467
6404 67.03000 195.90228 195.00000 0.00513
6405 67.04000 195.97773 216.00000 0.00463
6406 67.05000 196.07558 200.00000 0.00500
6407 67.06000 196.19651 206.00000 0.00485
6408 67.07000 196.34125 184.00000 0.00543
6409 67.08000 196.51054 194.00000 0.00515
6410 67.09000 196.70516 180.00000 0.00556
6411 67.10000 196.92583 225.00000 0.00444
6412 67.11000 197.17324 187.00000 0.00535
6413 67.12000 197.44794 194.00000 0.00515
6414 67.13000 197.75034 199.00000 0.00503
6415 67.14000 198.08056 209.00000 0.00478
6416 67.15000 198.43839 212.00000 0.00472
6417 67.16000 198.82317 215.00000 0.00465
6418 67.17000 199.23363 219.00000 0.00457
6419 67.18000 199.66776 185.00000 0.00541
6420 67.19000 200.12270 202.00000 0.00495
6421 67.20000 200.59452 218.00000 0.00459
6422 67.21000 201.07815 206.00000 0.00485
6423 67.22000 201.56730 182.00000 0.00549
6424 67.23000 202.05440 201.00000 0.00498
6425 67.24000 202.53076 197.00000 0.00508
6426 67.25000 202.98673 206.00000 0.00485
6427 67.26000 203.41209 218.00000 0.00459
6428 67.27000 203.79656 173.00000 0.00578
6429 67.28000 204.13044 198.00000 0.00505
6430 67.29000 204.40526 172.00000 0.00581
6431 67.30000 204.61455 202.00000 0.00495
6432 67.31000 204.75433 239.00000 0.00418
6433 67.32000 204.82359 225.00000 0.00444
6434 67.33000 204.82434 220.00000 0.00455
6435 67.34000 204.76156 216.00000 0.00463
6436 67.35000 204.64274 215.00000 0.00465
6437 67.36000 204.47734 208.00000 0.00481
6438 67.37000 204.27607 218.00000 0.00459
6439 67.38000 204.05024 206.00000 0.00485
6440 67.39000 203.81109 207.00000 0.00483
6441 67.40000 203.56932 213.00000 0.00469
6442 67.41000 203.33473 209.00000 0.00478
6443 67.42000 203.11601 190.00000 0.00526
6444 67.43000 202.92066 197.00000 0.00508
6445 67.44000 202.75502 197.00000 0.00508
6446 67.45000 202.62434 225.00000 0.00444
6447 67.46000 202.53294 206.00000 0.00485
6448 67.47000 202.48435 223.00000 0.00448
6449 67.48000 202.48149 218.00000 0.00459
6450 67.49000 202.52678 207.00000 0.00483
6451 67.50000 202.62231 176.00000 0.00568
6452 67.51000 202.76996 230.00000 0.00435
6453 67.52000 202.97147 202.00000 0.00495
6454 67.53000 203.22857 221.00000 0.00452
6455 67.54000 203.54300 229.00000 0.00437
6456 67.55000 203.91656 204.00000 0.00490
6457 67.56000 204.35119 197.00000 0.00508
6458 67.57000 204.84894 201.00000 0.00498
6459 67.58000 205.41202 209.00000 0.00478
6460 67.59000 206.04273 213.00000 0.00469
6461 67.60000 206.74351 183.00000 0.00546
6462 67.61000 207.51684 209.00000 0.00478
6463 67.62000 208.36520 196.00000 0.00510
6464 67.63000 209.29100 182.00000 0.00549
6465 67.64000 210.29642 220.00000 0.00455
6466 67.65000 211.38333 210.00000 0.00476
6467 67.66000 212.55305 222.00000 0.00450
6468 67.67000 213.80619 197.00000 0.00508
6469 67.68000 215.14237 205.00000 0.00488
6470 67.69000 216.55997 221.00000 0.00452
6471 67.70000 218.05584 222.00000 0.00450
6472 67.71000 219.62502 202.00000 0.00495
6473 67.72000 221.26049 207.00000 0.00483
6474 67.73000 222.95300 231.00000 0.00433
6475 67.74000 224.69105 225.00000 0.00444
6476 67.75000 226.46101 225.00000 0.00444
6477 67.76000 228.24744 213.00000 0.00469
6478 67.77000 230.03375 227.00000 0.00441
6479 67.78000 231.80301 237.00000 0.00422
6480 67.79000 233.53894 228.00000 0.00439
6481 67.80000 235.22695 238.00000 0.00420
6482 67.81000 236.85553 231.00000 0.00433
6483 67.82000 238.41669 232.00000 0.00431
6484 67.83000 239.90598 234.00000 0.00427
6485 67.84000 241.32280 235.00000 0.00426
6486 67.85000 242.66950 250.00000 0.00400
6487 67.86000 243.95004 228.00000 0.00439
6488 67.87000 245.16829 279.00000 0.00358
6489 67.88000 246.32627 257.00000 0.00389
6490 67.89000 247.42228 254.00000 0.00394
6491 67.90000 248.44951 243.00000 0.00412
6492 67.91000 249.39502 219.00000 0.00457
6493 67.92000 250.23953 272.00000 0.00368
6494 67.93000 250.95784 270.00000 0.00370
6495 67.94000 251.52019 257.00000 0.00389
6496 67.95000 251.89430 272.00000 0.00368
6497 67.96000 252.04800 257.00000 0.00389
6498 67.97000 251.95220 272.00000 0.00368
6499 67.98000 251.58384 269.00000 0.00372
6500 67.99000 250.92840 253.00000 0.00395
6501 68.00000 249.98166 247.00000 0.00405
6502 68.01000 248.75049 207.00000 0.00483
6503 68.02000 247.25244 256.00000 0.00391
6504 68.03000 245.51443 264.00000 0.00379
6505 68.04000 243.57058 244.00000 0.00410
6506 68.05000 241.45966 237.00000 0.00422
6507 68.06000 239.22244 242.00000 0.00413
6508 68.07000 236.89930 230.00000 0.00435
6509 68.08000 234.52826 242.00000 0.00413
6510 68.09000 232.14353 224.00000 0.00446
6511 68.10000 229.77475 250.00000 0.00400
6512 68.11000 227.44652 191.00000 0.00524
6513 68.12000 225.17851 192.00000 0.00521
6514 68.13000 222.98571 220.00000 0.00455
6515 68.14000 220.87899 219.00000 0.00457
6516 68.15000 218.86559 214.00000 0.00467
6517 68.16000 216.94976 198.00000 0.00505
6518 68.17000 215.13334 219.00000 0.00457
6519 68.18000 213.41622 201.00000 0.00498
6520 68.19000 211.79684 226.00000 0.00442
6521 68.20000 210.27256 191.00000 0.00524
6522 68.21000 208.83996 203.00000 0.00493
6523 68.22000 207.49510 210.00000 0.00476
6524 68.23000 206.23374 194.00000 0.00515
6525 68.24000 205.05145 193.00000 0.00518
6526 68.25000 203.94378 193.00000 0.00518
6527 68.26000 202.90631 181.00000 0.00552
6528 68.27000 201.93472 178.00000 0.00562
6529 68.28000 201.02487 200.00000 0.00500
6530 68.29000 200.17277 192.00000 0.00521
6531 68.30000 199.37464 190.00000 0.00526
6532 68.31000 198.62692 200.00000 0.00500
6533 68.32000 197.92626 185.00000 0.00541
6534 68.33000 197.26951 198.00000 0.00505
6535 68.34000 196.65374 193.00000 0.00518
6536 68.35000 196.07623 194.00000 0.00515
6537 68.36000 195.53445 191.00000 0.00524
6538 68.37000 195.02605 213.00000 0.00469
6539 68.38000 194.54885 192.00000 0.00521
6540 68.39000 194.10086 192.00000 0.00521
6541 68.40000 193.68023 194.00000 0.00515
6542 68.41000 193.28525 188.00000 0.00532
6543 68.42000 192.91435 199.00000 0.00503
6544 68.43000 192.56610 183.00000 0.00546
6545 68.44000 192.23916 202.00000 0.00495
6546 68.45000 191.93230 193.00000 0.00518
6547 68.46000 191.64440 172.00000 0.00581
6548 68.47000 191.37440 223.00000 0.00448
6549 68.48000 191.12128 189.00000 0.00529
6550 68.49000 190.88399 178.00000 0.00562
6551 68.50000 190.66157 191.00000 0.00524
6552 68.51000 190.45302 185.00000 0.00541
6553 68.52000 190.25715 190.00000 0.00526
6554 68.53000 190.07132 205.00000 0.00488
6555 68.54000 189.89900 196.00000 0.00510
6556 68.55000 189.74023 199.00000 0.00503
6557 68.56000 189.59152 223.00000 0.00448
6558 68.57000 189.45194 213.00000 0.00469
6559 68.58000 189.32048 181.00000 0.00552
6560 68.59000 189.19610 182.00000 0.00549
6561 68.60000 189.07771 216.00000 0.00463
6562 68.61000 188.96417 180.00000 0.00556
6563 68.62000 188.85438 218.00000 0.00459
6564 68.63000 188.74725 190.00000 0.00526
6565 68.64000 188.64180 214.00000 0.00467
6566 68.65000 188.53717 203.00000 0.00493
6567 68.66000 188.43268 208.00000 0.00481
6568 68.67000 188.32787 181.00000 0.00552
6569 68.68000 188.22251 210.00000 0.00476
6570 68.69000 188.11658 184.00000 0.00543
6571 68.70000 188.01033 213.00000 0.00469
6572 68.71000 187.90414 184.00000 0.00543
6573 68.72000 187.79856 177.00000 0.00565
6574 68.73000 187.69422 188.00000 0.00532
6575 68.74000 187.59180 191.00000 0.00524
6576 68.75000 187.49197 192.00000 0.00521
6577 68.76000 187.39535 188.00000 0.00532
6578 68.77000 187.30254 182.00000 0.00549
6579 68.78000 187.21403 175.00000 0.00571
6580 68.79000 187.13024 168.00000 0.00595
6581 68.80000 187.05154 188.00000 0.00532
6582 68.81000 186.97819 181.00000 0.00552
6583 68.82000 186.91040 200.00000 0.00500
6584 68.83000 186.84836 190.00000 0.00526
6585 68.84000 186.79217 190.00000 0.00526
6586 68.85000 186.74193 201.00000 0.00498
6587 68.86000 186.69772 209.00000 0.00478
6588 68.87000 186.65960 192.00000 0.00521
6589 68.88000 186.62762 166.00000 0.00602
6590 68.89000 186.60185 199.00000 0.00503
6591 68.90000 186.58236 188.00000 0.00532
6592 68.91000 186.56922 199.00000 0.00503
6593 68.92000 186.56252 186.00000 0.00538
6594 68.93000 186.56237 206.00000 0.00485
6595 68.94000 186.56891 180.00000 0.00556
6596 68.95000 186.58228 184.00000 0.00543
6597 68.96000 186.60267 178.00000 0.00562
6598 68.97000 186.63025 191.00000 0.00524
6599 68.98000 186.66526 195.00000 0.00513
6600 68.99000 186.70795 182.00000 0.00549
6601 69.00000 186.75856 187.00000 0.00535
6602 69.01000 186.81741 178.00000 0.00562
6603 69.02000 186.88478 175.00000 0.00571
6604 69.03000 186.96100 181.00000 0.00552
6605 69.04000 187.04642 175.00000 0.00571
6606 69.05000 187.14138 201.00000 0.00498
6607 69.06000 187.24622 211.00000 0.00474
6608 69.07000 187.36131 217.00000 0.00461
6609 69.08000 187.48698 207.00000 0.00483
6610 69.09000 187.62356 188.00000 0.00532
6611 69.10000 187.77137 198.00000 0.00505
6612 69.11000 187.93070 193.00000 0.00518
6613 69.12000 188.10178 183.00000 0.00546
6614 69.13000 188.28483 179.00000 0.00559
6615 69.14000 188.47998 181.00000 0.00552
6616 69.15000 188.68730 210.00000 0.00476
6617 69.16000 188.90674 202.00000 0.00495
6618 69.17000 189.13811 177.00000 0.00565
6619 69.18000 189.38103 186.00000 0.00538
6620 69.19000 189.63485 179.00000 0.00559
6621 69.20000 189.89859 197.00000 0.00508
6622 69.21000 190.17085 177.00000 0.00565
6623 69.22000 190.44973 178.00000 0.00562
6624 69.23000 190.73269 188.00000 0.00532
6625 69.24000 191.01656 182.00000 0.00549
6626 69.25000 191.29745 193.00000 0.00518
6627 69.26000 191.57075 198.00000 0.00505
6628 69.27000 191.83122 185.00000 0.00541
6629 69.28000 192.07312 196.00000 0.00510
6630 69.29000 192.29041 192.00000 0.00521
6631 69.30000 192.47708 197.00000 0.00508
6632 69.31000 192.62746 175.00000 0.00571
6633 69.32000 192.73663 196.00000 0.00510
6634 69.33000 192.80078 177.00000 0.00565
6635 69.34000 192.81750 198.00000 0.00505
6636 69.35000 192.78600 189.00000 0.00529
6637 69.36000 192.70721 190.00000 0.00526
6638 69.37000 192.58362 214.00000 0.00467
6639 69.38000 192.41919 186.00000 0.00538
6640 69.39000 192.21894 199.00000 0.00503
6641 69.40000 191.98864 179.00000 0.00559
6642 69.41000 191.73444 180.00000 0.00556
6643 69.42000 191.46248 174.00000 0.00575
6644 69.43000 191.17863 198.00000 0.00505
6645 69.44000 190.88826 202.00000 0.00495
6646 69.45000 190.59612 207.00000 0.00483
6647 69.46000 190.30625 191.00000 0.00524
6648 69.47000 190.02198 175.00000 0.00571
6649 69.48000 189.74594 188.00000 0.00532
6650 69.49000 189.48015 178.00000 0.00562
6651 69.50000 189.22608 174.00000 0.00575
6652 69.51000 188.98472 168.00000 0.00595
6653 69.52000 188.75669 223.00000 0.00448
6654 69.53000 188.54226 181.00000 0.00552
6655 69.54000 188.34149 182.00000 0.00549
6656 69.55000 188.15422 181.00000 0.00552
6657 69.56000 187.98016 174.00000 0.00575
6658 69.57000 187.81892 185.00000 0.00541
6659 69.58000 187.67003 183.00000 0.00546
6660 69.59000 187.53298 189.00000 0.00529
6661 69.60000 187.40724 221.00000 0.00452
6662 69.61000 187.29225 160.00000 0.00625
6663 69.62000 187.18747 190.00000 0.00526
6664 69.63000 187.09238 200.00000 0.00500
6665 69.64000 187.00644 194.00000 0.00515
6666 69.65000 186.92917 174.00000 0.00575
6667 69.66000 186.86008 188.00000 0.00532
6668 69.67000 186.79872 191.00000 0.00524
6669 69.68000 186.74468 185.00000 0.00541
6670 69.69000 186.69755 189.00000 0.00529
6671 69.70000 186.65694 193.00000 0.00518
6672 69.71000 186.62250 176.00000 0.00568
6673 69.72000 186.59389 170.00000 0.00588
6674 69.73000 186.57075 191.00000 0.00524
6675 69.74000 186.55272 193.00000 0.00518
6676 69.75000 186.54009 180.00000 0.00556
6677 69.76000 186.53226 175.00000 0.00571
6678 69.77000 186.52901 192.00000 0.00521
6679 69.78000 186.53015 195.00000 0.00513
6680 69.79000 186.53548 208.00000 0.00481
6681 69.80000 186.54485 204.00000 0.00490
6682 69.81000 186.55810 183.00000 0.00546
6683 69.82000 186.57510 182.00000 0.00549
6684 69.83000 186.59571 193.00000 0.00518
6685 69.84000 186.61982 183.00000 0.00546
6686 69.85000 186.64733 199.00000 0.00503
6687 69.86000 186.67815 174.00000 0.00575
6688 69.87000 186.71218 193.00000 0.00518
6689 69.88000 186.74936 202.00000 0.00495
6690 69.89000 186.78962 178.00000 0.00562
6691 69.90000 186.83289 164.00000 0.00610
6692 69.91000 186.87913 191.00000 0.00524
6693 69.92000 186.92829 203.00000 0.00493
6694 69.93000 186.98032 202.00000 0.00495
6695 69.94000 187.03519 193.00000 0.00518
6696 69.95000 187.09287 182.00000 0.00549
6697 69.96000 187.15333 172.00000 0.00581
6698 69.97000 187.21655 194.00000 0.00515
6699 69.98000 187.28251 211.00000 0.00474
6700 69.99000 187.35121 192.00000 0.00521
6701 70.00000 187.42262 188.00000 0.00532

#==============================================================================
# Reflections Data Block
#==============================================================================
_reflns_number_total             190
_reflns_limit_h_min              0
_reflns_limit_h_max              15
_reflns_limit_k_min              0
_reflns_limit_k_max              15
_reflns_limit_l_min              0
_reflns_limit_l_max              8
_reflns_d_resolution_high        12.00898
_reflns_d_resolution_low         ?

loop_
_refln_index_h
_refln_index_k
_refln_index_l
_refln_d_spacing
_refln_F_squared_calc
_refln_F_squared_meas
_refln_F_squared_sigma
_refln_observed_status
1 1 1 12.00898 7.03 7.05 0.03 o
0 0 2 10.40008 3.30 3.33 0.03 o
0 2 2 7.35397 0.84 0.88 0.03 o
3 1 1 6.27148 0.57 0.60 0.03 o
2 2 2 6.00449 0.50 0.49 0.05 o
0 0 4 5.20004 0.97 0.94 0.07 o
3 3 1 4.77188 0.74 0.72 0.06 o
0 4 2 4.65106 0.33 0.32 0.10 o
4 0 2 4.65106 0.33 0.32 0.10 o
4 2 2 4.24581 1.75 1.62 0.12 o
3 3 3 4.00299 0.21 0.21 0.10 o
5 1 1 4.00299 1.48 1.49 0.14 o
0 4 4 3.67698 0.26 0.28 0.06 o
5 3 1 3.51587 0.95 0.96 0.25 o
3 5 1 3.51587 2.04 2.07 0.30 o
4 4 2 3.46669 4.31 4.65 0.31 o
0 0 6 3.46669 1.58 1.71 0.23 o
6 0 2 3.28879 0.62 0.61 0.12 o
0 6 2 3.28879 0.28 0.27 0.09 o
5 3 3 3.17199 2.74 2.91 0.28 o
6 2 2 3.13574 0.01 0.02 0.02 o
4 4 4 3.00224 2.83 2.95 0.27 o
5 5 1 2.91260 0.06 0.06 0.04 o
7 1 1 2.91260 6.59 6.41 0.30 o
6 0 4 2.88446 0.28 0.25 0.10 o
0 6 4 2.88446 0.96 0.86 0.16 o
6 4 2 2.77954 1.09 1.02 0.24 o
4 6 2 2.77954 1.21 1.12 0.23 o
5 5 3 2.70795 5.16 5.11 0.33 o
7 3 1 2.70795 0.01 0.01 0.02 o
3 7 1 2.70795 0.09 0.09 0.07 o
0 0 8 2.60002 2.58 2.36 0.26 o
7 3 3 2.54114 0.08 0.08 0.05 o
6 4 4 2.52239 6.37 6.12 0.39 o
8 0 2 2.52239 1.43 1.37 0.29 o
0 8 2 2.52239 0.77 0.74 0.22 o
8 2 2 2.45132 0.03 0.03 0.02 o
0 6 6 2.45132 1.79 1.71 0.21 o
5 5 5 2.40180 5.20 5.26 0.32 o
7 5 1 2.40180 0.36 0.37 0.17 o
5 7 1 2.40180 0.26 0.26 0.14 o
6 6 2 2.38594 0.51 0.49 0.09 o
8 0 4 2.32553 0.00 0.00 0.02 o
0 8 4 2.32553 0.00 0.00 0.01 o
7 5 3 2.28311 1.30 1.24 0.34 o
5 7 3 2.28311 2.07 1.97 0.38 o
9 1 1 2.28311 2.25 2.14 0.26 o
4 8 2 2.26948 0.13 0.12 0.08 o
8 4 2 2.26948 0.01 0.01 0.03 o
6 6 4 2.21730 5.90 6.20 0.25 o
9 3 1 2.18045 0.30 0.30 0.16 o
3 9 1 2.18045 0.07 0.07 0.07 o
8 4 4 2.12291 0.21 0.22 0.10 o
7 5 5 2.09049 6.38 6.43 0.42 o
7 7 1 2.09049 6.46 6.51 0.40 o
9 3 3 2.09049 0.03 0.03 0.05 o
0 8 6 2.08002 1.84 1.91 0.28 o
8 0 6 2.08002 1.83 1.89 0.27 o
0 0 10 2.08002 2.90 3.01 0.26 o
8 6 2 2.03962 0.45 0.47 0.19 o
6 8 2 2.03962 2.08 2.14 0.38 o
10 0 2 2.03962 1.41 1.45 0.23 o
0 10 2 2.03962 3.58 3.67 0.34 o
7 7 3 2.01083 0.18 0.18 0.08 o
5 9 1 2.01083 1.60 1.67 0.29 o
9 5 1 2.01083 3.05 3.18 0.40 o
6 6 6 2.00150 0.94 0.98 0.17 o
10 2 2 2.00150 0.22 0.23 0.07 o
9 5 3 1.93962 0.14 0.13 0.11 o
5 9 3 1.93962 0.12 0.11 0.09 o
8 6 4 1.93125 0.18 0.17 0.13 o
6 8 4 1.93125 0.01 0.01 0.03 o
10 0 4 1.93125 0.07 0.06 0.05 o
0 10 4 1.93125 0.05 0.05 0.04 o
10 4 2 1.89879 0.86 0.81 0.16 o
4 10 2 1.89879 0.30 0.28 0.09 o
7 7 5 1.87549 0.23 0.22 0.11 o
11 1 1 1.87549 1.92 1.84 0.23 o
0 8 8 1.83849 2.68 2.98 0.30 o
9 5 5 1.81732 0.79 0.82 0.19 o
7 9 1 1.81732 3.76 3.89 0.44 o
9 7 1 1.81732 6.08 6.28 0.50 o
11 3 1 1.81732 0.39 0.40 0.15 o
3 11 1 1.81732 0.41 0.42 0.16 o
10 4 4 1.81042 0.30 0.30 0.11 o
8 8 2 1.81042 7.23 7.32 0.51 o
8 6 6 1.78360 0.00 0.00 0.01 o
0 10 6 1.78360 0.63 0.67 0.17 o
10 0 6 1.78360 1.13 1.20 0.22 o
9 7 3 1.76425 1.16 1.23 0.29 o
7 9 3 1.76425 2.05 2.17 0.37 o
11 3 3 1.76425 1.50 1.59 0.25 o
10 6 2 1.75793 0.12 0.13 0.08 o
6 10 2 1.75793 0.22 0.22 0.10 o
8 8 4 1.73335 0.15 0.15 0.08 o
0 0 12 1.73335 1.09 1.09 0.19 o
7 7 7 1.71557 0.07 0.07 0.06 o
5 11 1 1.71557 0.02 0.02 0.02 o
11 5 1 1.71557 0.11 0.11 0.06 o
0 12 2 1.70976 0.01 0.01 0.02 o
12 0 2 1.70976 0.15 0.15 0.07 o
10 6 4 1.68712 0.27 0.28 0.11 o
6 10 4 1.68712 0.02 0.02 0.03 o
12 2 2 1.68712 0.10 0.10 0.06 o
9 7 5 1.67071 0.66 0.66 0.20 o
7 9 5 1.67071 0.11 0.11 0.07 o
5 11 3 1.67071 3.38 3.34 0.38 o
11 5 3 1.67071 2.39 2.37 0.31 o
12 0 4 1.64440 0.17 0.17 0.09 o
0 12 4 1.64440 0.31 0.33 0.12 o
9 9 1 1.62919 8.35 8.24 0.34 o
8 8 6 1.62422 2.80 2.85 0.34 o
10 0 8 1.62422 3.08 3.13 0.33 o
12 4 2 1.62422 2.29 2.33 0.32 o
0 10 8 1.62422 1.99 2.02 0.26 o
4 12 2 1.62422 3.76 3.83 0.35 o
10 8 2 1.60477 3.06 3.17 0.33 o
8 10 2 1.60477 1.13 1.16 0.21 o
9 9 3 1.59063 1.13 1.15 0.33 o
11 5 5 1.59063 4.99 5.06 0.33 o
7 11 1 1.59063 1.27 1.28 0.22 o
11 7 1 1.59063 0.86 0.88 0.19 o
13 1 1 1.59063 0.74 0.75 0.18 o
10 6 6 1.58600 0.02 0.02 0.03 o
12 4 4 1.56787 7.20 7.30 0.52 o
9 7 7 1.55468 1.52 1.55 0.23 o
7 11 3 1.55468 0.30 0.31 0.14 o
11 7 3 1.55468 0.25 0.26 0.12 o
3 13 1 1.55468 1.13 1.15 0.20 o
13 3 1 1.55468 1.54 1.57 0.23 o
8 10 4 1.55035 0.15 0.15 0.08 o
10 8 4 1.55035 0.02 0.02 0.03 o
12 0 6 1.55035 0.32 0.32 0.11 o
0 12 6 1.55035 0.40 0.40 0.12 o
12 6 2 1.53341 0.85 0.84 0.15 o
6 12 2 1.53341 0.59 0.58 0.14 o
9 9 5 1.52106 1.23 1.22 0.14 o
13 3 3 1.52106 4.16 4.15 0.43 o
8 8 8 1.50112 2.21 2.26 0.30 o
7 11 5 1.48953 0.69 0.71 0.19 o
11 7 5 1.48953 0.71 0.73 0.19 o
13 5 1 1.48953 0.30 0.31 0.12 o
5 13 1 1.48953 0.21 0.22 0.10 o
12 6 4 1.48573 3.62 3.77 0.34 o
6 12 4 1.48573 3.99 4.16 0.41 o
0 0 14 1.48573 1.35 1.40 0.19 o
8 10 6 1.47079 0.23 0.23 0.09 o
10 8 6 1.47079 0.48 0.48 0.15 o
0 10 10 1.47079 2.60 2.62 0.29 o
14 0 2 1.47079 0.00 0.00 0.01 o
0 14 2 1.47079 0.11 0.11 0.05 o
11 9 1 1.45989 1.63 1.66 0.28 o
5 13 3 1.45989 3.43 3.49 0.34 o
9 11 1 1.45989 1.51 1.54 0.27 o
13 5 3 1.45989 4.72 4.81 0.43 o
10 10 2 1.45630 1.07 1.08 0.17 o
14 2 2 1.45630 0.49 0.49 0.12 o
12 0 8 1.44223 0.34 0.34 0.09 o
0 12 8 1.44223 0.56 0.56 0.13 o
9 9 7 1.43194 5.24 5.16 0.41 o
9 11 3 1.43194 0.03 0.03 0.03 o
11 9 3 1.43194 0.06 0.06 0.05 o
8 12 2 1.42856 0.00 0.00 0.01 o
12 8 2 1.42856 0.01 0.01 0.01 o
0 14 4 1.42856 0.23 0.23 0.08 o
14 0 4 1.42856 0.15 0.15 0.06 o
12 6 6 1.41527 1.98 2.00 0.28 o
10 10 4 1.41527 0.06 0.07 0.03 o
4 14 2 1.41527 1.76 1.77 0.22 o
14 4 2 1.41527 1.97 1.98 0.25 o
11 7 7 1.40554 0.13 0.13 0.07 o
13 5 5 1.40554 5.81 5.86 0.44 o
7 13 1 1.40554 0.04 0.04 0.03 o
13 7 1 1.40554 0.00 0.00 0.01 o
12 8 4 1.38977 0.99 1.01 0.20 o
8 12 4 1.38977 0.63 0.63 0.17 o
9 11 5 1.38056 0.04 0.04 0.03 o
11 9 5 1.38056 0.02 0.02 0.02 o
13 7 3 1.38056 0.93 0.93 0.18 o
7 13 3 1.38056 0.84 0.84 0.17 o
15 1 1 1.38056 1.45 1.45 0.23 o
10 8 8 1.37752 2.11 2.10 0.27 o
14 4 4 1.37752 4.93 4.92 0.37 o
14 0 6 1.36560 0.03 0.03 0.03 o
0 14 6 1.36560 0.11 0.11 0.05 o
3 15 1 1.35685 0.00 0.00 0.01 o
15 3 1 1.35685 0.04 0.04 0.05 o
10 10 6 1.35398 0.47 0.47 0.09 o
6 14 2 1.35398 0.47 0.47 0.13 o
14 6 2 1.35398 0.25 0.25 0.09 o
# start Validation Reply Form
_vrf_ATOM006_I                   
;
PROBLEM: _atom_site_U_iso_or_equiv is missing
RESPONSE: Thermal parameters quoted in Beq
;
# end Validation Reply Form
#--eof--eof--eof--eof--eof--eof--eof--eof--eof--eof--eof--eof--eof--eof--eof--#_chemical_name_systematic        UiO-66(Zr)_cdc@H2O
_chemical_name_common            
'ZrCDC; ZrCDC@H2O; UiO-66(Zr)_cdc; UiO-66_cdc@H2O; UiO-66_cdc'
_exptl_crystal_colour            white
_exptl_crystal_description       powder
_chemical_melting_point          ?
_exptl_crystal_recrystallization_method 'Solvothermal synthesis'
_chemical_compound_source        N/A
