data_ZIF-4-cg
_chemical_formula_sum                           'AB2C9D15E19'
_cell_length_a			15.39500
_cell_length_b			15.30730
_cell_length_c			18.42600
_cell_angle_alpha		90.00000
_cell_angle_beta		90.00000
_cell_angle_gamma		90.00000
_cell_volume			4342.19531
_cell_formula_units_Z		8
_symmetry_space_group_name_H-M	'P 1'
_symmetry_Int_Tables_number	1
loop_
_symmetry_equiv_pos_site_id
_symmetry_equiv_pos_as_xyz
1 x,y,z
loop_
_atom_site_label
_atom_site_type_symbol
_atom_site_symmetry_multiplicity
_atom_site_fract_x
_atom_site_fract_y
_atom_site_fract_z
_atom_site_occupancy
     O-1        O 1   0.3259833300   0.8124750000   0.3982500000  1
     O-2        O 1   0.3259833300   0.6875250000   0.8982500000  1
     O-3        O 1   0.1740166700   0.1875250000   0.8982500000  1
     O-4        O 1   0.6740166700   0.3124750000   0.1017500000  1
     O-5        O 1   0.6740166700   0.1875250000   0.6017500000  1
     O-6        O 1   0.1740166700   0.3124750000   0.3982500000  1
     O-7        O 1   0.8259833300   0.8124750000   0.1017500000  1
     O-8        O 1   0.8259833300   0.6875250000   0.6017500000  1
     O-9        O 1   0.8618325000   0.9837662500   0.8042637500  1
    O-10        O 1   0.4060337500   0.8275600000   0.1181800000  1
    O-11        O 1   0.1619937500   0.8909725000   0.9232062500  1
    Si-1       Si 1   0.2021500000   0.8605100000   0.0916980000  1
    O-12        O 1   0.0979512500   0.8042075000   0.6586850000  1
    Si-2       Si 1   0.0096350000   0.8360200000   0.8137430000  1
    O-13        O 1   0.3618325000   0.5162337500   0.1957362500  1
    O-14        O 1   0.9060337500   0.6724400000   0.8818200000  1
    O-15        O 1   0.6619937500   0.6090275000   0.0767937500  1
    Si-3       Si 1   0.7021500000   0.6394900000   0.9083020000  1
    O-16        O 1   0.5979512500   0.6957925000   0.3413150000  1
    Si-4       Si 1   0.5096350000   0.6639800000   0.1862570000  1
    O-17        O 1   0.6381675000   0.4837662500   0.8042637500  1
    O-18        O 1   0.0939662500   0.3275600000   0.1181800000  1
    O-19        O 1   0.3380062500   0.3909725000   0.9232062500  1
    Si-5       Si 1   0.2978500000   0.3605100000   0.0916980000  1
    O-20        O 1   0.4020487500   0.3042075000   0.6586850000  1
    Si-6       Si 1   0.4903650000   0.3360200000   0.8137430000  1
    O-21        O 1   0.1381675000   0.0162337500   0.1957362500  1
    O-22        O 1   0.5939662500   0.1724400000   0.8818200000  1
    O-23        O 1   0.8380062500   0.1090275000   0.0767937500  1
    Si-7       Si 1   0.7978500000   0.1394900000   0.9083020000  1
    O-24        O 1   0.9020487500   0.1957925000   0.3413150000  1
    Si-8       Si 1   0.9903650000   0.1639800000   0.1862570000  1
    O-25        O 1   0.1381675000   0.4837662500   0.6957362500  1
    O-26        O 1   0.5939662500   0.3275600000   0.3818200000  1
    O-27        O 1   0.8380062500   0.3909725000   0.5767937500  1
    Si-9       Si 1   0.7978500000   0.3605100000   0.4083020000  1
    O-28        O 1   0.9020487500   0.3042075000   0.8413150000  1
   Si-10       Si 1   0.9903650000   0.3360200000   0.6862570000  1
    O-29        O 1   0.6381675000   0.0162337500   0.3042637500  1
    O-30        O 1   0.0939662500   0.1724400000   0.6181800000  1
    O-31        O 1   0.3380062500   0.1090275000   0.4232062500  1
   Si-11       Si 1   0.2978500000   0.1394900000   0.5916980000  1
    O-32        O 1   0.4020487500   0.1957925000   0.1586850000  1
   Si-12       Si 1   0.4903650000   0.1639800000   0.3137430000  1
    O-33        O 1   0.8618325000   0.5162337500   0.3042637500  1
    O-34        O 1   0.4060337500   0.6724400000   0.6181800000  1
    O-35        O 1   0.1619937500   0.6090275000   0.4232062500  1
   Si-13       Si 1   0.2021500000   0.6394900000   0.5916980000  1
    O-36        O 1   0.0979512500   0.6957925000   0.1586850000  1
   Si-14       Si 1   0.0096350000   0.6639800000   0.3137430000  1
    O-37        O 1   0.3618325000   0.9837662500   0.6957362500  1
    O-38        O 1   0.9060337500   0.8275600000   0.3818200000  1
    O-39        O 1   0.6619937500   0.8909725000   0.5767937500  1
   Si-15       Si 1   0.7021500000   0.8605100000   0.4083020000  1
    O-40        O 1   0.5979512500   0.8042075000   0.8413150000  1
   Si-16       Si 1   0.5096350000   0.8360200000   0.6862570000  1
loop_
_topol_link.node_label_1
_topol_link.node_label_2
_topol_link.distance
_topol_link.site_symmetry_symop_1
_topol_link.site_symmetry_translation_1_x
_topol_link.site_symmetry_translation_1_y
_topol_link.site_symmetry_translation_1_z
_topol_link.site_symmetry_symop_2
_topol_link.site_symmetry_translation_2_x
_topol_link.site_symmetry_translation_2_y
_topol_link.site_symmetry_translation_2_z
_topol_link.type
_topol_link.multiplicity
     O-9     Si-7  3.21360    1    0    0    0    1    0    1    0  V  1
     O-9     Si-2  3.21292    1    0    0    0    1    1    0    0  V  1
    O-10     Si-1  3.21629    1    0    0    0    1    0    0    0  V  1
    O-10     Si-4  3.22291    1    0    0    0    1    0    0    0  V  1
    O-11     Si-2  3.20584    1    0    0    0    1    0    0    0  V  1
    O-11     Si-1  3.19974    1    0    0    0    1    0    0    1  V  1
    Si-1     O-36  3.23328    1    0    0    0    1    0    0    0  V  1
    Si-1     O-21  3.21360    1    0    0    0    1    0    1    0  V  1
    O-12     Si-2  3.20136    1    0    0    0    1    0    0    0  V  1
    O-12    Si-13  3.23328    1    0    0    0    1    0    0    0  V  1
    Si-2     O-14  3.22291    1    0    0    0    1   -1    0    0  V  1
    O-13     Si-5  3.21360    1    0    0    0    1    0    0    0  V  1
    O-13     Si-4  3.21292    1    0    0    0    1    0    0    0  V  1
    O-14     Si-3  3.21629    1    0    0    0    1    0    0    0  V  1
    O-15     Si-4  3.20584    1    0    0    0    1    0    0    0  V  1
    O-15     Si-3  3.19974    1    0    0    0    1    0    0   -1  V  1
    Si-3     O-40  3.23328    1    0    0    0    1    0    0    0  V  1
    Si-3     O-17  3.21360    1    0    0    0    1    0    0    0  V  1
    O-16     Si-4  3.20136    1    0    0    0    1    0    0    0  V  1
    O-16    Si-15  3.23328    1    0    0    0    1    0    0    0  V  1
    O-17     Si-6  3.21292    1    0    0    0    1    0    0    0  V  1
    O-18     Si-5  3.21629    1    0    0    0    1    0    0    0  V  1
    O-18     Si-8  3.22291    1    0    0    0    1   -1    0    0  V  1
    O-19     Si-6  3.20584    1    0    0    0    1    0    0    0  V  1
    O-19     Si-5  3.19974    1    0    0    0    1    0    0    1  V  1
    Si-5     O-32  3.23328    1    0    0    0    1    0    0    0  V  1
    O-20     Si-6  3.20136    1    0    0    0    1    0    0    0  V  1
    O-20    Si-11  3.23328    1    0    0    0    1    0    0    0  V  1
    Si-6     O-22  3.22291    1    0    0    0    1    0    0    0  V  1
    O-21     Si-8  3.21292    1    0    0    0    1   -1    0    0  V  1
    O-22     Si-7  3.21629    1    0    0    0    1    0    0    0  V  1
    O-23     Si-8  3.20584    1    0    0    0    1    0    0    0  V  1
    O-23     Si-7  3.19974    1    0    0    0    1    0    0   -1  V  1
    Si-7     O-28  3.23328    1    0    0    0    1    0    0    0  V  1
    O-24     Si-8  3.20136    1    0    0    0    1    0    0    0  V  1
    O-24     Si-9  3.23328    1    0    0    0    1    0    0    0  V  1
    O-25    Si-13  3.21360    1    0    0    0    1    0    0    0  V  1
    O-25    Si-10  3.21292    1    0    0    0    1   -1    0    0  V  1
    O-26     Si-9  3.21629    1    0    0    0    1    0    0    0  V  1
    O-26    Si-12  3.22291    1    0    0    0    1    0    0    0  V  1
    O-27    Si-10  3.20584    1    0    0    0    1    0    0    0  V  1
    O-27     Si-9  3.19974    1    0    0    0    1    0    0    0  V  1
    Si-9     O-33  3.21360    1    0    0    0    1    0    0    0  V  1
    O-28    Si-10  3.20136    1    0    0    0    1    0    0    0  V  1
   Si-10     O-30  3.22291    1    0    0    0    1    1    0    0  V  1
    O-29    Si-15  3.21360    1    0    0    0    1    0   -1    0  V  1
    O-29    Si-12  3.21292    1    0    0    0    1    0    0    0  V  1
    O-30    Si-11  3.21629    1    0    0    0    1    0    0    0  V  1
    O-31    Si-12  3.20584    1    0    0    0    1    0    0    0  V  1
    O-31    Si-11  3.19974    1    0    0    0    1    0    0    0  V  1
   Si-11     O-37  3.21360    1    0    0    0    1    0   -1    0  V  1
    O-32    Si-12  3.20136    1    0    0    0    1    0    0    0  V  1
    O-33    Si-14  3.21292    1    0    0    0    1    1    0    0  V  1
    O-34    Si-13  3.21629    1    0    0    0    1    0    0    0  V  1
    O-34    Si-16  3.22291    1    0    0    0    1    0    0    0  V  1
    O-35    Si-14  3.20584    1    0    0    0    1    0    0    0  V  1
    O-35    Si-13  3.19974    1    0    0    0    1    0    0    0  V  1
    O-36    Si-14  3.20136    1    0    0    0    1    0    0    0  V  1
   Si-14     O-38  3.22291    1    0    0    0    1   -1    0    0  V  1
    O-37    Si-16  3.21292    1    0    0    0    1    0    0    0  V  1
    O-38    Si-15  3.21629    1    0    0    0    1    0    0    0  V  1
    O-39    Si-16  3.20584    1    0    0    0    1    0    0    0  V  1
    O-39    Si-15  3.19974    1    0    0    0    1    0    0    0  V  1
    O-40    Si-16  3.20136    1    0    0    0    1    0    0    0  V  1
#End of data_ZIF-4-cg

