data_ZIF-4-cg
_chemical_formula_sum                           'AB2C9D15E19'
_cell_length_a			15.39500
_cell_length_b			15.30730
_cell_length_c			18.42600
_cell_angle_alpha		90.00000
_cell_angle_beta		90.00000
_cell_angle_gamma		90.00000
_cell_volume			4342.19531
_cell_formula_units_Z		8
_symmetry_space_group_name_H-M	'P 1'
_symmetry_Int_Tables_number	1
loop_
_symmetry_equiv_pos_site_id
_symmetry_equiv_pos_as_xyz
1 x,y,z
loop_
_atom_site_label
_atom_site_type_symbol
_atom_site_symmetry_multiplicity
_atom_site_fract_x
_atom_site_fract_y
_atom_site_fract_z
_atom_site_occupancy
      O1        O 1   0.8675520000   0.9840860000   0.8119020000  1
      O2        O 1   0.3996740000   0.8196160000   0.1212680000  1
      O3        O 1   0.1545500000   0.8854960000   0.9272500000  1
     Si1       Si 1   0.2021500000   0.8605100000   0.0916980000  1
      O4        O 1   0.0981820000   0.7953520000   0.6639360000  1
     Si2       Si 1   0.0096350000   0.8360200000   0.8137430000  1
      O5        O 1   0.3675520000   0.5159140000   0.1880980000  1
      O6        O 1   0.8996740000   0.6803840000   0.8787320000  1
      O7        O 1   0.6545500000   0.6145040000   0.0727500000  1
     Si3       Si 1   0.7021500000   0.6394900000   0.9083020000  1
      O8        O 1   0.5981820000   0.7046480000   0.3360640000  1
     Si4       Si 1   0.5096350000   0.6639800000   0.1862570000  1
      O9        O 1   0.6324480000   0.4840860000   0.8119020000  1
     O10        O 1   0.1003260000   0.3196160000   0.1212680000  1
     O11        O 1   0.3454500000   0.3854960000   0.9272500000  1
     Si5       Si 1   0.2978500000   0.3605100000   0.0916980000  1
     O12        O 1   0.4018180000   0.2953520000   0.6639360000  1
     Si6       Si 1   0.4903650000   0.3360200000   0.8137430000  1
     O13        O 1   0.1324480000   0.0159140000   0.1880980000  1
     O14        O 1   0.6003260000   0.1803840000   0.8787320000  1
     O15        O 1   0.8454500000   0.1145040000   0.0727500000  1
     Si7       Si 1   0.7978500000   0.1394900000   0.9083020000  1
     O16        O 1   0.9018180000   0.2046480000   0.3360640000  1
     Si8       Si 1   0.9903650000   0.1639800000   0.1862570000  1
     O17        O 1   0.1324480000   0.4840860000   0.6880980000  1
     O18        O 1   0.6003260000   0.3196160000   0.3787320000  1
     O19        O 1   0.8454500000   0.3854960000   0.5727500000  1
     Si9       Si 1   0.7978500000   0.3605100000   0.4083020000  1
     O20        O 1   0.9018180000   0.2953520000   0.8360640000  1
    Si10       Si 1   0.9903650000   0.3360200000   0.6862570000  1
     O21        O 1   0.6324480000   0.0159140000   0.3119020000  1
     O22        O 1   0.1003260000   0.1803840000   0.6212680000  1
     O23        O 1   0.3454500000   0.1145040000   0.4272500000  1
    Si11       Si 1   0.2978500000   0.1394900000   0.5916980000  1
     O24        O 1   0.4018180000   0.2046480000   0.1639360000  1
    Si12       Si 1   0.4903650000   0.1639800000   0.3137430000  1
     O25        O 1   0.8675520000   0.5159140000   0.3119020000  1
     O26        O 1   0.3996740000   0.6803840000   0.6212680000  1
     O27        O 1   0.1545500000   0.6145040000   0.4272500000  1
    Si13       Si 1   0.2021500000   0.6394900000   0.5916980000  1
     O28        O 1   0.0981820000   0.7046480000   0.1639360000  1
    Si14       Si 1   0.0096350000   0.6639800000   0.3137430000  1
     O29        O 1   0.3675520000   0.9840860000   0.6880980000  1
     O30        O 1   0.8996740000   0.8196160000   0.3787320000  1
     O31        O 1   0.6545500000   0.8854960000   0.5727500000  1
    Si15       Si 1   0.7021500000   0.8605100000   0.4083020000  1
     O32        O 1   0.5981820000   0.7953520000   0.8360640000  1
    Si16       Si 1   0.5096350000   0.8360200000   0.6862570000  1
loop_
_topol_link.node_label_1
_topol_link.node_label_2
_topol_link.distance
_topol_link.site_symmetry_symop_1
_topol_link.site_symmetry_translation_1_x
_topol_link.site_symmetry_translation_1_y
_topol_link.site_symmetry_translation_1_z
_topol_link.site_symmetry_symop_2
_topol_link.site_symmetry_translation_2_x
_topol_link.site_symmetry_translation_2_y
_topol_link.site_symmetry_translation_2_z
_topol_link.type
_topol_link.multiplicity
      O1      Si7  3.15679    1    0    0    0    1    0    1    0  V  1
      O1      Si2  3.15003    1    0    0    0    1    1    0    0  V  1
      O2      Si1  3.15209    1    0    0    0    1    0    0    0  V  1
      O2      Si4  3.15838    1    0    0    0    1    0    0    0  V  1
      O3      Si2  3.15041    1    0    0    0    1    0    0    0  V  1
      O3      Si1  3.14084    1    0    0    0    1    0    0    1  V  1
     Si1      O28  3.16635    1    0    0    0    1    0    0    0  V  1
     Si1      O13  3.15679    1    0    0    0    1    0    1    0  V  1
      O4      Si2  3.14091    1    0    0    0    1    0    0    0  V  1
      O4     Si13  3.16635    1    0    0    0    1    0    0    0  V  1
     Si2       O6  3.15838    1    0    0    0    1   -1    0    0  V  1
      O5      Si5  3.15679    1    0    0    0    1    0    0    0  V  1
      O5      Si4  3.15003    1    0    0    0    1    0    0    0  V  1
      O6      Si3  3.15209    1    0    0    0    1    0    0    0  V  1
      O7      Si4  3.15041    1    0    0    0    1    0    0    0  V  1
      O7      Si3  3.14084    1    0    0    0    1    0    0   -1  V  1
     Si3      O32  3.16635    1    0    0    0    1    0    0    0  V  1
     Si3       O9  3.15679    1    0    0    0    1    0    0    0  V  1
      O8      Si4  3.14091    1    0    0    0    1    0    0    0  V  1
      O8     Si15  3.16635    1    0    0    0    1    0    0    0  V  1
      O9      Si6  3.15003    1    0    0    0    1    0    0    0  V  1
     O10      Si5  3.15209    1    0    0    0    1    0    0    0  V  1
     O10      Si8  3.15838    1    0    0    0    1   -1    0    0  V  1
     O11      Si6  3.15041    1    0    0    0    1    0    0    0  V  1
     O11      Si5  3.14084    1    0    0    0    1    0    0    1  V  1
     Si5      O24  3.16635    1    0    0    0    1    0    0    0  V  1
     O12      Si6  3.14091    1    0    0    0    1    0    0    0  V  1
     O12     Si11  3.16635    1    0    0    0    1    0    0    0  V  1
     Si6      O14  3.15838    1    0    0    0    1    0    0    0  V  1
     O13      Si8  3.15003    1    0    0    0    1   -1    0    0  V  1
     O14      Si7  3.15209    1    0    0    0    1    0    0    0  V  1
     O15      Si8  3.15041    1    0    0    0    1    0    0    0  V  1
     O15      Si7  3.14084    1    0    0    0    1    0    0   -1  V  1
     Si7      O20  3.16635    1    0    0    0    1    0    0    0  V  1
     O16      Si8  3.14091    1    0    0    0    1    0    0    0  V  1
     O16      Si9  3.16635    1    0    0    0    1    0    0    0  V  1
     O17     Si13  3.15679    1    0    0    0    1    0    0    0  V  1
     O17     Si10  3.15003    1    0    0    0    1   -1    0    0  V  1
     O18      Si9  3.15209    1    0    0    0    1    0    0    0  V  1
     O18     Si12  3.15838    1    0    0    0    1    0    0    0  V  1
     O19     Si10  3.15041    1    0    0    0    1    0    0    0  V  1
     O19      Si9  3.14084    1    0    0    0    1    0    0    0  V  1
     Si9      O25  3.15679    1    0    0    0    1    0    0    0  V  1
     O20     Si10  3.14091    1    0    0    0    1    0    0    0  V  1
    Si10      O22  3.15838    1    0    0    0    1    1    0    0  V  1
     O21     Si15  3.15679    1    0    0    0    1    0   -1    0  V  1
     O21     Si12  3.15003    1    0    0    0    1    0    0    0  V  1
     O22     Si11  3.15209    1    0    0    0    1    0    0    0  V  1
     O23     Si12  3.15041    1    0    0    0    1    0    0    0  V  1
     O23     Si11  3.14084    1    0    0    0    1    0    0    0  V  1
    Si11      O29  3.15679    1    0    0    0    1    0   -1    0  V  1
     O24     Si12  3.14091    1    0    0    0    1    0    0    0  V  1
     O25     Si14  3.15003    1    0    0    0    1    1    0    0  V  1
     O26     Si13  3.15209    1    0    0    0    1    0    0    0  V  1
     O26     Si16  3.15838    1    0    0    0    1    0    0    0  V  1
     O27     Si14  3.15041    1    0    0    0    1    0    0    0  V  1
     O27     Si13  3.14084    1    0    0    0    1    0    0    0  V  1
     O28     Si14  3.14091    1    0    0    0    1    0    0    0  V  1
    Si14      O30  3.15838    1    0    0    0    1   -1    0    0  V  1
     O29     Si16  3.15003    1    0    0    0    1    0    0    0  V  1
     O30     Si15  3.15209    1    0    0    0    1    0    0    0  V  1
     O31     Si16  3.15041    1    0    0    0    1    0    0    0  V  1
     O31     Si15  3.14084    1    0    0    0    1    0    0    0  V  1
     O32     Si16  3.14091    1    0    0    0    1    0    0    0  V  1
#End of data_ZIF-4-cg

