data_ZIF-8-cg-supercell
_chemical_formula_sum                              'AB4C8D10'
_cell_length_a			16.85090
_cell_length_b			50.55270
_cell_length_c			33.70180
_cell_angle_alpha		90.00000
_cell_angle_beta		90.00000
_cell_angle_gamma		90.00000
_cell_volume			28709.16454
_cell_formula_units_Z		72
_symmetry_space_group_name_H-M	'P 1'
_symmetry_Int_Tables_number	1
loop_
_symmetry_equiv_pos_site_id
_symmetry_equiv_pos_as_xyz
1 x,y,z
loop_
_atom_site_label
_atom_site_type_symbol
_atom_site_symmetry_multiplicity
_atom_site_fract_x
_atom_site_fract_y
_atom_site_fract_z
_atom_site_occupancy
      O1        O 1   0.3710181800   0.1236727300   0.5085636400  1
      O2        O 1   0.3710181800   0.1236727300   0.0085636400  1
      O3        O 1   0.0171272700   0.2096606100   0.3144909100  1
      O4        O 1   0.0171272700   0.1236727300   0.1855090900  1
      O5        O 1   0.6289818200   0.2096606100   0.5085636400  1
      O6        O 1   0.6289818200   0.2096606100   0.0085636400  1
      O7        O 1   0.6289818200   0.3390424200   0.3144909100  1
      O8        O 1   0.6289818200   0.0057090900   0.3144909100  1
      O9        O 1   0.3710181800   0.3390424200   0.1855090900  1
     O10        O 1   0.3710181800   0.0057090900   0.1855090900  1
     O11        O 1   0.4828727300   0.2903393900   0.0644909100  1
     O12        O 1   0.3710181800   0.9942909100   0.3144909100  1
     O13        O 1   0.3710181800   0.3276242400   0.3144909100  1
     Si1       Si 1   0.5000000000   0.2500000000   0.0000000000  1
     O14        O 1   0.5171272700   0.2903393900   0.4355090900  1
     Si2       Si 1   0.5000000000   0.0000000000   0.3750000000  1
     O15        O 1   0.4828727300   0.0429939400   0.4355090900  1
     Si3       Si 1   0.5000000000   0.0833333300   0.0000000000  1
     O16        O 1   0.5171272700   0.0429939400   0.0644909100  1
     O17        O 1   0.6289818200   0.1236727300   0.9914363600  1
     O18        O 1   0.6289818200   0.1236727300   0.4914363600  1
     O19        O 1   0.3710181800   0.2096606100   0.9914363600  1
     O20        O 1   0.3710181800   0.2096606100   0.4914363600  1
     Si4       Si 1   0.0000000000   0.0833333300   0.2500000000  1
     O21        O 1   0.1289818200   0.0429939400   0.2585636400  1
     Si5       Si 1   0.2500000000   0.0000000000   0.2500000000  1
     Si6       Si 1   0.0000000000   0.1666666700   0.1250000000  1
     Si7       Si 1   0.5000000000   0.0000000000   0.1250000000  1
     O22        O 1   0.6289818200   0.9942909100   0.1855090900  1
     O23        O 1   0.6289818200   0.3276242400   0.1855090900  1
     O24        O 1   0.9828727300   0.2096606100   0.1855090900  1
     O25        O 1   0.8710181800   0.2903393900   0.2585636400  1
     Si8       Si 1   0.7500000000   0.0000000000   0.2500000000  1
     O26        O 1   0.8710181800   0.0429939400   0.2414363600  1
     Si9       Si 1   0.0000000000   0.2500000000   0.2500000000  1
     O27        O 1   0.1289818200   0.2903393900   0.2414363600  1
    Si10       Si 1   0.2500000000   0.1666666700   0.0000000000  1
     O28        O 1   0.1289818200   0.1723757600   0.0644909100  1
     O29        O 1   0.9828727300   0.1236727300   0.3144909100  1
    Si11       Si 1   0.0000000000   0.1666666700   0.3750000000  1
     O30        O 1   0.1289818200   0.1609575800   0.4355090900  1
     O31        O 1   0.8710181800   0.1609575800   0.0644909100  1
    Si12       Si 1   0.7500000000   0.1666666700   0.0000000000  1
     O32        O 1   0.8710181800   0.1723757600   0.4355090900  1
     O33        O 1   0.0171272700   0.2096606100   0.8144909100  1
     O34        O 1   0.0171272700   0.1236727300   0.6855090900  1
     O35        O 1   0.6289818200   0.3390424200   0.8144909100  1
     O36        O 1   0.6289818200   0.0057090900   0.8144909100  1
     O37        O 1   0.3710181800   0.3390424200   0.6855090900  1
     O38        O 1   0.3710181800   0.0057090900   0.6855090900  1
     O39        O 1   0.4828727300   0.2903393900   0.5644909100  1
     O40        O 1   0.3710181800   0.9942909100   0.8144909100  1
     O41        O 1   0.3710181800   0.3276242400   0.8144909100  1
    Si13       Si 1   0.5000000000   0.2500000000   0.5000000000  1
     O42        O 1   0.5171272700   0.2903393900   0.9355090900  1
    Si14       Si 1   0.5000000000   0.0000000000   0.8750000000  1
     O43        O 1   0.4828727300   0.0429939400   0.9355090900  1
    Si15       Si 1   0.5000000000   0.0833333300   0.5000000000  1
     O44        O 1   0.5171272700   0.0429939400   0.5644909100  1
    Si16       Si 1   0.0000000000   0.0833333300   0.7500000000  1
     O45        O 1   0.1289818200   0.0429939400   0.7585636400  1
    Si17       Si 1   0.2500000000   0.0000000000   0.7500000000  1
    Si18       Si 1   0.0000000000   0.1666666700   0.6250000000  1
    Si19       Si 1   0.5000000000   0.0000000000   0.6250000000  1
     O46        O 1   0.6289818200   0.9942909100   0.6855090900  1
     O47        O 1   0.6289818200   0.3276242400   0.6855090900  1
     O48        O 1   0.9828727300   0.2096606100   0.6855090900  1
     O49        O 1   0.8710181800   0.2903393900   0.7585636400  1
    Si20       Si 1   0.7500000000   0.0000000000   0.7500000000  1
     O50        O 1   0.8710181800   0.0429939400   0.7414363600  1
    Si21       Si 1   0.0000000000   0.2500000000   0.7500000000  1
     O51        O 1   0.1289818200   0.2903393900   0.7414363600  1
    Si22       Si 1   0.2500000000   0.1666666700   0.5000000000  1
     O52        O 1   0.1289818200   0.1723757600   0.5644909100  1
     O53        O 1   0.9828727300   0.1236727300   0.8144909100  1
    Si23       Si 1   0.0000000000   0.1666666700   0.8750000000  1
     O54        O 1   0.1289818200   0.1609575800   0.9355090900  1
     O55        O 1   0.8710181800   0.1609575800   0.5644909100  1
    Si24       Si 1   0.7500000000   0.1666666700   0.5000000000  1
     O56        O 1   0.8710181800   0.1723757600   0.9355090900  1
     O57        O 1   0.3710181800   0.4570060600   0.5085636400  1
     O58        O 1   0.3710181800   0.4570060600   0.0085636400  1
     O59        O 1   0.0171272700   0.5429939400   0.3144909100  1
     O60        O 1   0.0171272700   0.4570060600   0.1855090900  1
     O61        O 1   0.6289818200   0.5429939400   0.5085636400  1
     O62        O 1   0.6289818200   0.5429939400   0.0085636400  1
     O63        O 1   0.6289818200   0.6723757600   0.3144909100  1
     O64        O 1   0.3710181800   0.6723757600   0.1855090900  1
     O65        O 1   0.4828727300   0.6236727300   0.0644909100  1
     O66        O 1   0.3710181800   0.6609575800   0.3144909100  1
    Si25       Si 1   0.5000000000   0.5833333300   0.0000000000  1
     O67        O 1   0.5171272700   0.6236727300   0.4355090900  1
    Si26       Si 1   0.5000000000   0.3333333300   0.3750000000  1
     O68        O 1   0.4828727300   0.3763272700   0.4355090900  1
    Si27       Si 1   0.5000000000   0.4166666700   0.0000000000  1
     O69        O 1   0.5171272700   0.3763272700   0.0644909100  1
     O70        O 1   0.6289818200   0.4570060600   0.9914363600  1
     O71        O 1   0.6289818200   0.4570060600   0.4914363600  1
     O72        O 1   0.3710181800   0.5429939400   0.9914363600  1
     O73        O 1   0.3710181800   0.5429939400   0.4914363600  1
    Si28       Si 1   0.0000000000   0.4166666700   0.2500000000  1
     O74        O 1   0.1289818200   0.3763272700   0.2585636400  1
    Si29       Si 1   0.2500000000   0.3333333300   0.2500000000  1
    Si30       Si 1   0.0000000000   0.5000000000   0.1250000000  1
    Si31       Si 1   0.5000000000   0.3333333300   0.1250000000  1
     O75        O 1   0.6289818200   0.6609575800   0.1855090900  1
     O76        O 1   0.9828727300   0.5429939400   0.1855090900  1
     O77        O 1   0.8710181800   0.6236727300   0.2585636400  1
    Si32       Si 1   0.7500000000   0.3333333300   0.2500000000  1
     O78        O 1   0.8710181800   0.3763272700   0.2414363600  1
    Si33       Si 1   0.0000000000   0.5833333300   0.2500000000  1
     O79        O 1   0.1289818200   0.6236727300   0.2414363600  1
    Si34       Si 1   0.2500000000   0.5000000000   0.0000000000  1
     O80        O 1   0.1289818200   0.5057090900   0.0644909100  1
     O81        O 1   0.9828727300   0.4570060600   0.3144909100  1
    Si35       Si 1   0.0000000000   0.5000000000   0.3750000000  1
     O82        O 1   0.1289818200   0.4942909100   0.4355090900  1
     O83        O 1   0.8710181800   0.4942909100   0.0644909100  1
    Si36       Si 1   0.7500000000   0.5000000000   0.0000000000  1
     O84        O 1   0.8710181800   0.5057090900   0.4355090900  1
     O85        O 1   0.0171272700   0.5429939400   0.8144909100  1
     O86        O 1   0.0171272700   0.4570060600   0.6855090900  1
     O87        O 1   0.6289818200   0.6723757600   0.8144909100  1
     O88        O 1   0.3710181800   0.6723757600   0.6855090900  1
     O89        O 1   0.4828727300   0.6236727300   0.5644909100  1
     O90        O 1   0.3710181800   0.6609575800   0.8144909100  1
    Si37       Si 1   0.5000000000   0.5833333300   0.5000000000  1
     O91        O 1   0.5171272700   0.6236727300   0.9355090900  1
    Si38       Si 1   0.5000000000   0.3333333300   0.8750000000  1
     O92        O 1   0.4828727300   0.3763272700   0.9355090900  1
    Si39       Si 1   0.5000000000   0.4166666700   0.5000000000  1
     O93        O 1   0.5171272700   0.3763272700   0.5644909100  1
    Si40       Si 1   0.0000000000   0.4166666700   0.7500000000  1
     O94        O 1   0.1289818200   0.3763272700   0.7585636400  1
    Si41       Si 1   0.2500000000   0.3333333300   0.7500000000  1
    Si42       Si 1   0.0000000000   0.5000000000   0.6250000000  1
    Si43       Si 1   0.5000000000   0.3333333300   0.6250000000  1
     O95        O 1   0.6289818200   0.6609575800   0.6855090900  1
     O96        O 1   0.9828727300   0.5429939400   0.6855090900  1
     O97        O 1   0.8710181800   0.6236727300   0.7585636400  1
    Si44       Si 1   0.7500000000   0.3333333300   0.7500000000  1
     O98        O 1   0.8710181800   0.3763272700   0.7414363600  1
    Si45       Si 1   0.0000000000   0.5833333300   0.7500000000  1
     O99        O 1   0.1289818200   0.6236727300   0.7414363600  1
    Si46       Si 1   0.2500000000   0.5000000000   0.5000000000  1
    O100        O 1   0.1289818200   0.5057090900   0.5644909100  1
    O101        O 1   0.9828727300   0.4570060600   0.8144909100  1
    Si47       Si 1   0.0000000000   0.5000000000   0.8750000000  1
    O102        O 1   0.1289818200   0.4942909100   0.9355090900  1
    O103        O 1   0.8710181800   0.4942909100   0.5644909100  1
    Si48       Si 1   0.7500000000   0.5000000000   0.5000000000  1
    O104        O 1   0.8710181800   0.5057090900   0.9355090900  1
    O105        O 1   0.3710181800   0.7903393900   0.5085636400  1
    O106        O 1   0.3710181800   0.7903393900   0.0085636400  1
    O107        O 1   0.0171272700   0.8763272700   0.3144909100  1
    O108        O 1   0.0171272700   0.7903393900   0.1855090900  1
    O109        O 1   0.6289818200   0.8763272700   0.5085636400  1
    O110        O 1   0.6289818200   0.8763272700   0.0085636400  1
    O111        O 1   0.4828727300   0.9570060600   0.0644909100  1
    Si49       Si 1   0.5000000000   0.9166666700   0.0000000000  1
    O112        O 1   0.5171272700   0.9570060600   0.4355090900  1
    Si50       Si 1   0.5000000000   0.6666666700   0.3750000000  1
    O113        O 1   0.4828727300   0.7096606100   0.4355090900  1
    Si51       Si 1   0.5000000000   0.7500000000   0.0000000000  1
    O114        O 1   0.5171272700   0.7096606100   0.0644909100  1
    O115        O 1   0.6289818200   0.7903393900   0.9914363600  1
    O116        O 1   0.6289818200   0.7903393900   0.4914363600  1
    O117        O 1   0.3710181800   0.8763272700   0.9914363600  1
    O118        O 1   0.3710181800   0.8763272700   0.4914363600  1
    Si52       Si 1   0.0000000000   0.7500000000   0.2500000000  1
    O119        O 1   0.1289818200   0.7096606100   0.2585636400  1
    Si53       Si 1   0.2500000000   0.6666666700   0.2500000000  1
    Si54       Si 1   0.0000000000   0.8333333300   0.1250000000  1
    Si55       Si 1   0.5000000000   0.6666666700   0.1250000000  1
    O120        O 1   0.9828727300   0.8763272700   0.1855090900  1
    O121        O 1   0.8710181800   0.9570060600   0.2585636400  1
    Si56       Si 1   0.7500000000   0.6666666700   0.2500000000  1
    O122        O 1   0.8710181800   0.7096606100   0.2414363600  1
    Si57       Si 1   0.0000000000   0.9166666700   0.2500000000  1
    O123        O 1   0.1289818200   0.9570060600   0.2414363600  1
    Si58       Si 1   0.2500000000   0.8333333300   0.0000000000  1
    O124        O 1   0.1289818200   0.8390424200   0.0644909100  1
    O125        O 1   0.9828727300   0.7903393900   0.3144909100  1
    Si59       Si 1   0.0000000000   0.8333333300   0.3750000000  1
    O126        O 1   0.1289818200   0.8276242400   0.4355090900  1
    O127        O 1   0.8710181800   0.8276242400   0.0644909100  1
    Si60       Si 1   0.7500000000   0.8333333300   0.0000000000  1
    O128        O 1   0.8710181800   0.8390424200   0.4355090900  1
    O129        O 1   0.0171272700   0.8763272700   0.8144909100  1
    O130        O 1   0.0171272700   0.7903393900   0.6855090900  1
    O131        O 1   0.4828727300   0.9570060600   0.5644909100  1
    Si61       Si 1   0.5000000000   0.9166666700   0.5000000000  1
    O132        O 1   0.5171272700   0.9570060600   0.9355090900  1
    Si62       Si 1   0.5000000000   0.6666666700   0.8750000000  1
    O133        O 1   0.4828727300   0.7096606100   0.9355090900  1
    Si63       Si 1   0.5000000000   0.7500000000   0.5000000000  1
    O134        O 1   0.5171272700   0.7096606100   0.5644909100  1
    Si64       Si 1   0.0000000000   0.7500000000   0.7500000000  1
    O135        O 1   0.1289818200   0.7096606100   0.7585636400  1
    Si65       Si 1   0.2500000000   0.6666666700   0.7500000000  1
    Si66       Si 1   0.0000000000   0.8333333300   0.6250000000  1
    Si67       Si 1   0.5000000000   0.6666666700   0.6250000000  1
    O136        O 1   0.9828727300   0.8763272700   0.6855090900  1
    O137        O 1   0.8710181800   0.9570060600   0.7585636400  1
    Si68       Si 1   0.7500000000   0.6666666700   0.7500000000  1
    O138        O 1   0.8710181800   0.7096606100   0.7414363600  1
    Si69       Si 1   0.0000000000   0.9166666700   0.7500000000  1
    O139        O 1   0.1289818200   0.9570060600   0.7414363600  1
    Si70       Si 1   0.2500000000   0.8333333300   0.5000000000  1
    O140        O 1   0.1289818200   0.8390424200   0.5644909100  1
    O141        O 1   0.9828727300   0.7903393900   0.8144909100  1
    Si71       Si 1   0.0000000000   0.8333333300   0.8750000000  1
    O142        O 1   0.1289818200   0.8276242400   0.9355090900  1
    O143        O 1   0.8710181800   0.8276242400   0.5644909100  1
    Si72       Si 1   0.7500000000   0.8333333300   0.5000000000  1
    O144        O 1   0.8710181800   0.8390424200   0.9355090900  1
loop_
_topol_link.node_label_1
_topol_link.node_label_2
_topol_link.distance
_topol_link.site_symmetry_symop_1
_topol_link.site_symmetry_translation_1_x
_topol_link.site_symmetry_translation_1_y
_topol_link.site_symmetry_translation_1_z
_topol_link.site_symmetry_symop_2
_topol_link.site_symmetry_translation_2_x
_topol_link.site_symmetry_translation_2_y
_topol_link.site_symmetry_translation_2_z
_topol_link.type
_topol_link.multiplicity
      O1     Si15  2.99430    1    0    0    0    1    0    0    0  V  1
      O1     Si22  2.99430    1    0    0    0    1    0    0    0  V  1
      O2      Si3  2.99430    1    0    0    0    1    0    0    0  V  1
      O2     Si10  2.99430    1    0    0    0    1    0    0    0  V  1
      O3     Si11  2.99430    1    0    0    0    1    0    0    0  V  1
      O3      Si9  2.99430    1    0    0    0    1    0    0    0  V  1
      O4      Si4  2.99430    1    0    0    0    1    0    0    0  V  1
      O4      Si6  2.99430    1    0    0    0    1    0    0    0  V  1
      O5     Si24  2.99430    1    0    0    0    1    0    0    0  V  1
      O5     Si13  2.99430    1    0    0    0    1    0    0    0  V  1
      O6     Si12  2.99430    1    0    0    0    1    0    0    0  V  1
      O6      Si1  2.99430    1    0    0    0    1    0    0    0  V  1
      O7     Si26  2.99430    1    0    0    0    1    0    0    0  V  1
      O7     Si32  2.99430    1    0    0    0    1    0    0    0  V  1
      O8      Si2  2.99430    1    0    0    0    1    0    0    0  V  1
      O8      Si8  2.99430    1    0    0    0    1    0    0    0  V  1
      O9     Si29  2.99430    1    0    0    0    1    0    0    0  V  1
      O9     Si31  2.99430    1    0    0    0    1    0    0    0  V  1
     O10      Si5  2.99430    1    0    0    0    1    0    0    0  V  1
     O10      Si7  2.99430    1    0    0    0    1    0    0    0  V  1
     O11     Si31  2.99430    1    0    0    0    1    0    0    0  V  1
     O11      Si1  2.99430    1    0    0    0    1    0    0    0  V  1
     O12      Si5  2.99430    1    0    0    0    1    0    1    0  V  1
     O12      Si2  2.99430    1    0    0    0    1    0    1    0  V  1
     O13     Si29  2.99430    1    0    0    0    1    0    0    0  V  1
     O13     Si26  2.99430    1    0    0    0    1    0    0    0  V  1
     Si1      O42  2.99430    1    0    0    0    1    0    0   -1  V  1
     Si1      O19  2.99430    1    0    0    0    1    0    0   -1  V  1
     O14     Si26  2.99430    1    0    0    0    1    0    0    0  V  1
     O14     Si13  2.99430    1    0    0    0    1    0    0    0  V  1
     Si2     O112  2.99430    1    0    0    0    1    0   -1    0  V  1
     Si2      O15  2.99430    1    0    0    0    1    0    0    0  V  1
     O15     Si15  2.99430    1    0    0    0    1    0    0    0  V  1
     Si3      O16  2.99430    1    0    0    0    1    0    0    0  V  1
     Si3      O17  2.99430    1    0    0    0    1    0    0   -1  V  1
     Si3      O43  2.99430    1    0    0    0    1    0    0   -1  V  1
     O16      Si7  2.99430    1    0    0    0    1    0    0    0  V  1
     O17     Si12  2.99430    1    0    0    0    1    0    0    1  V  1
     O18     Si15  2.99430    1    0    0    0    1    0    0    0  V  1
     O18     Si24  2.99430    1    0    0    0    1    0    0    0  V  1
     O19     Si10  2.99430    1    0    0    0    1    0    0    1  V  1
     O20     Si22  2.99430    1    0    0    0    1    0    0    0  V  1
     O20     Si13  2.99430    1    0    0    0    1    0    0    0  V  1
     Si4      O26  2.99430    1    0    0    0    1   -1    0    0  V  1
     Si4      O29  2.99430    1    0    0    0    1   -1    0    0  V  1
     Si4      O21  2.99430    1    0    0    0    1    0    0    0  V  1
     O21      Si5  2.99430    1    0    0    0    1    0    0    0  V  1
     Si5     O123  2.99430    1    0    0    0    1    0   -1    0  V  1
     Si6      O24  2.99430    1    0    0    0    1   -1    0    0  V  1
     Si6      O28  2.99430    1    0    0    0    1    0    0    0  V  1
     Si6      O31  2.99430    1    0    0    0    1   -1    0    0  V  1
     Si7     O111  2.99430    1    0    0    0    1    0   -1    0  V  1
     Si7      O22  2.99430    1    0    0    0    1    0   -1    0  V  1
     O22      Si8  2.99430    1    0    0    0    1    0    1    0  V  1
     O23     Si32  2.99430    1    0    0    0    1    0    0    0  V  1
     O23     Si31  2.99430    1    0    0    0    1    0    0    0  V  1
     O24      Si9  2.99430    1    0    0    0    1    1    0    0  V  1
     O25     Si32  2.99430    1    0    0    0    1    0    0    0  V  1
     O25      Si9  2.99430    1    0    0    0    1    1    0    0  V  1
     Si8      O26  2.99430    1    0    0    0    1    0    0    0  V  1
     Si8     O121  2.99430    1    0    0    0    1    0   -1    0  V  1
     Si9      O27  2.99430    1    0    0    0    1    0    0    0  V  1
     O27     Si29  2.99430    1    0    0    0    1    0    0    0  V  1
    Si10      O28  2.99430    1    0    0    0    1    0    0    0  V  1
    Si10      O54  2.99430    1    0    0    0    1    0    0   -1  V  1
     O29     Si11  2.99430    1    0    0    0    1    1    0    0  V  1
    Si11      O32  2.99430    1    0    0    0    1   -1    0    0  V  1
    Si11      O30  2.99430    1    0    0    0    1    0    0    0  V  1
     O30     Si22  2.99430    1    0    0    0    1    0    0    0  V  1
     O31     Si12  2.99430    1    0    0    0    1    0    0    0  V  1
    Si12      O56  2.99430    1    0    0    0    1    0    0   -1  V  1
     O32     Si24  2.99430    1    0    0    0    1    0    0    0  V  1
     O33     Si23  2.99430    1    0    0    0    1    0    0    0  V  1
     O33     Si21  2.99430    1    0    0    0    1    0    0    0  V  1
     O34     Si16  2.99430    1    0    0    0    1    0    0    0  V  1
     O34     Si18  2.99430    1    0    0    0    1    0    0    0  V  1
     O35     Si38  2.99430    1    0    0    0    1    0    0    0  V  1
     O35     Si44  2.99430    1    0    0    0    1    0    0    0  V  1
     O36     Si14  2.99430    1    0    0    0    1    0    0    0  V  1
     O36     Si20  2.99430    1    0    0    0    1    0    0    0  V  1
     O37     Si41  2.99430    1    0    0    0    1    0    0    0  V  1
     O37     Si43  2.99430    1    0    0    0    1    0    0    0  V  1
     O38     Si17  2.99430    1    0    0    0    1    0    0    0  V  1
     O38     Si19  2.99430    1    0    0    0    1    0    0    0  V  1
     O39     Si43  2.99430    1    0    0    0    1    0    0    0  V  1
     O39     Si13  2.99430    1    0    0    0    1    0    0    0  V  1
     O40     Si17  2.99430    1    0    0    0    1    0    1    0  V  1
     O40     Si14  2.99430    1    0    0    0    1    0    1    0  V  1
     O41     Si41  2.99430    1    0    0    0    1    0    0    0  V  1
     O41     Si38  2.99430    1    0    0    0    1    0    0    0  V  1
     O42     Si38  2.99430    1    0    0    0    1    0    0    0  V  1
    Si14     O132  2.99430    1    0    0    0    1    0   -1    0  V  1
    Si14      O43  2.99430    1    0    0    0    1    0    0    0  V  1
    Si15      O44  2.99430    1    0    0    0    1    0    0    0  V  1
     O44     Si19  2.99430    1    0    0    0    1    0    0    0  V  1
    Si16      O50  2.99430    1    0    0    0    1   -1    0    0  V  1
    Si16      O53  2.99430    1    0    0    0    1   -1    0    0  V  1
    Si16      O45  2.99430    1    0    0    0    1    0    0    0  V  1
     O45     Si17  2.99430    1    0    0    0    1    0    0    0  V  1
    Si17     O139  2.99430    1    0    0    0    1    0   -1    0  V  1
    Si18      O48  2.99430    1    0    0    0    1   -1    0    0  V  1
    Si18      O52  2.99430    1    0    0    0    1    0    0    0  V  1
    Si18      O55  2.99430    1    0    0    0    1   -1    0    0  V  1
    Si19     O131  2.99430    1    0    0    0    1    0   -1    0  V  1
    Si19      O46  2.99430    1    0    0    0    1    0   -1    0  V  1
     O46     Si20  2.99430    1    0    0    0    1    0    1    0  V  1
     O47     Si44  2.99430    1    0    0    0    1    0    0    0  V  1
     O47     Si43  2.99430    1    0    0    0    1    0    0    0  V  1
     O48     Si21  2.99430    1    0    0    0    1    1    0    0  V  1
     O49     Si44  2.99430    1    0    0    0    1    0    0    0  V  1
     O49     Si21  2.99430    1    0    0    0    1    1    0    0  V  1
    Si20      O50  2.99430    1    0    0    0    1    0    0    0  V  1
    Si20     O137  2.99430    1    0    0    0    1    0   -1    0  V  1
    Si21      O51  2.99430    1    0    0    0    1    0    0    0  V  1
     O51     Si41  2.99430    1    0    0    0    1    0    0    0  V  1
    Si22      O52  2.99430    1    0    0    0    1    0    0    0  V  1
     O53     Si23  2.99430    1    0    0    0    1    1    0    0  V  1
    Si23      O56  2.99430    1    0    0    0    1   -1    0    0  V  1
    Si23      O54  2.99430    1    0    0    0    1    0    0    0  V  1
     O55     Si24  2.99430    1    0    0    0    1    0    0    0  V  1
     O57     Si39  2.99430    1    0    0    0    1    0    0    0  V  1
     O57     Si46  2.99430    1    0    0    0    1    0    0    0  V  1
     O58     Si27  2.99430    1    0    0    0    1    0    0    0  V  1
     O58     Si34  2.99430    1    0    0    0    1    0    0    0  V  1
     O59     Si35  2.99430    1    0    0    0    1    0    0    0  V  1
     O59     Si33  2.99430    1    0    0    0    1    0    0    0  V  1
     O60     Si28  2.99430    1    0    0    0    1    0    0    0  V  1
     O60     Si30  2.99430    1    0    0    0    1    0    0    0  V  1
     O61     Si48  2.99430    1    0    0    0    1    0    0    0  V  1
     O61     Si37  2.99430    1    0    0    0    1    0    0    0  V  1
     O62     Si36  2.99430    1    0    0    0    1    0    0    0  V  1
     O62     Si25  2.99430    1    0    0    0    1    0    0    0  V  1
     O63     Si50  2.99430    1    0    0    0    1    0    0    0  V  1
     O63     Si56  2.99430    1    0    0    0    1    0    0    0  V  1
     O64     Si53  2.99430    1    0    0    0    1    0    0    0  V  1
     O64     Si55  2.99430    1    0    0    0    1    0    0    0  V  1
     O65     Si55  2.99430    1    0    0    0    1    0    0    0  V  1
     O65     Si25  2.99430    1    0    0    0    1    0    0    0  V  1
     O66     Si53  2.99430    1    0    0    0    1    0    0    0  V  1
     O66     Si50  2.99430    1    0    0    0    1    0    0    0  V  1
    Si25      O91  2.99430    1    0    0    0    1    0    0   -1  V  1
    Si25      O72  2.99430    1    0    0    0    1    0    0   -1  V  1
     O67     Si50  2.99430    1    0    0    0    1    0    0    0  V  1
     O67     Si37  2.99430    1    0    0    0    1    0    0    0  V  1
    Si26      O68  2.99430    1    0    0    0    1    0    0    0  V  1
     O68     Si39  2.99430    1    0    0    0    1    0    0    0  V  1
    Si27      O69  2.99430    1    0    0    0    1    0    0    0  V  1
    Si27      O70  2.99430    1    0    0    0    1    0    0   -1  V  1
    Si27      O92  2.99430    1    0    0    0    1    0    0   -1  V  1
     O69     Si31  2.99430    1    0    0    0    1    0    0    0  V  1
     O70     Si36  2.99430    1    0    0    0    1    0    0    1  V  1
     O71     Si39  2.99430    1    0    0    0    1    0    0    0  V  1
     O71     Si48  2.99430    1    0    0    0    1    0    0    0  V  1
     O72     Si34  2.99430    1    0    0    0    1    0    0    1  V  1
     O73     Si46  2.99430    1    0    0    0    1    0    0    0  V  1
     O73     Si37  2.99430    1    0    0    0    1    0    0    0  V  1
    Si28      O78  2.99430    1    0    0    0    1   -1    0    0  V  1
    Si28      O81  2.99430    1    0    0    0    1   -1    0    0  V  1
    Si28      O74  2.99430    1    0    0    0    1    0    0    0  V  1
     O74     Si29  2.99430    1    0    0    0    1    0    0    0  V  1
    Si30      O76  2.99430    1    0    0    0    1   -1    0    0  V  1
    Si30      O80  2.99430    1    0    0    0    1    0    0    0  V  1
    Si30      O83  2.99430    1    0    0    0    1   -1    0    0  V  1
     O75     Si56  2.99430    1    0    0    0    1    0    0    0  V  1
     O75     Si55  2.99430    1    0    0    0    1    0    0    0  V  1
     O76     Si33  2.99430    1    0    0    0    1    1    0    0  V  1
     O77     Si56  2.99430    1    0    0    0    1    0    0    0  V  1
     O77     Si33  2.99430    1    0    0    0    1    1    0    0  V  1
    Si32      O78  2.99430    1    0    0    0    1    0    0    0  V  1
    Si33      O79  2.99430    1    0    0    0    1    0    0    0  V  1
     O79     Si53  2.99430    1    0    0    0    1    0    0    0  V  1
    Si34      O80  2.99430    1    0    0    0    1    0    0    0  V  1
    Si34     O102  2.99430    1    0    0    0    1    0    0   -1  V  1
     O81     Si35  2.99430    1    0    0    0    1    1    0    0  V  1
    Si35      O84  2.99430    1    0    0    0    1   -1    0    0  V  1
    Si35      O82  2.99430    1    0    0    0    1    0    0    0  V  1
     O82     Si46  2.99430    1    0    0    0    1    0    0    0  V  1
     O83     Si36  2.99430    1    0    0    0    1    0    0    0  V  1
    Si36     O104  2.99430    1    0    0    0    1    0    0   -1  V  1
     O84     Si48  2.99430    1    0    0    0    1    0    0    0  V  1
     O85     Si47  2.99430    1    0    0    0    1    0    0    0  V  1
     O85     Si45  2.99430    1    0    0    0    1    0    0    0  V  1
     O86     Si40  2.99430    1    0    0    0    1    0    0    0  V  1
     O86     Si42  2.99430    1    0    0    0    1    0    0    0  V  1
     O87     Si62  2.99430    1    0    0    0    1    0    0    0  V  1
     O87     Si68  2.99430    1    0    0    0    1    0    0    0  V  1
     O88     Si65  2.99430    1    0    0    0    1    0    0    0  V  1
     O88     Si67  2.99430    1    0    0    0    1    0    0    0  V  1
     O89     Si67  2.99430    1    0    0    0    1    0    0    0  V  1
     O89     Si37  2.99430    1    0    0    0    1    0    0    0  V  1
     O90     Si65  2.99430    1    0    0    0    1    0    0    0  V  1
     O90     Si62  2.99430    1    0    0    0    1    0    0    0  V  1
     O91     Si62  2.99430    1    0    0    0    1    0    0    0  V  1
    Si38      O92  2.99430    1    0    0    0    1    0    0    0  V  1
    Si39      O93  2.99430    1    0    0    0    1    0    0    0  V  1
     O93     Si43  2.99430    1    0    0    0    1    0    0    0  V  1
    Si40      O98  2.99430    1    0    0    0    1   -1    0    0  V  1
    Si40     O101  2.99430    1    0    0    0    1   -1    0    0  V  1
    Si40      O94  2.99430    1    0    0    0    1    0    0    0  V  1
     O94     Si41  2.99430    1    0    0    0    1    0    0    0  V  1
    Si42      O96  2.99430    1    0    0    0    1   -1    0    0  V  1
    Si42     O100  2.99430    1    0    0    0    1    0    0    0  V  1
    Si42     O103  2.99430    1    0    0    0    1   -1    0    0  V  1
     O95     Si68  2.99430    1    0    0    0    1    0    0    0  V  1
     O95     Si67  2.99430    1    0    0    0    1    0    0    0  V  1
     O96     Si45  2.99430    1    0    0    0    1    1    0    0  V  1
     O97     Si68  2.99430    1    0    0    0    1    0    0    0  V  1
     O97     Si45  2.99430    1    0    0    0    1    1    0    0  V  1
    Si44      O98  2.99430    1    0    0    0    1    0    0    0  V  1
    Si45      O99  2.99430    1    0    0    0    1    0    0    0  V  1
     O99     Si65  2.99430    1    0    0    0    1    0    0    0  V  1
    Si46     O100  2.99430    1    0    0    0    1    0    0    0  V  1
    O101     Si47  2.99430    1    0    0    0    1    1    0    0  V  1
    Si47     O104  2.99430    1    0    0    0    1   -1    0    0  V  1
    Si47     O102  2.99430    1    0    0    0    1    0    0    0  V  1
    O103     Si48  2.99430    1    0    0    0    1    0    0    0  V  1
    O105     Si63  2.99430    1    0    0    0    1    0    0    0  V  1
    O105     Si70  2.99430    1    0    0    0    1    0    0    0  V  1
    O106     Si51  2.99430    1    0    0    0    1    0    0    0  V  1
    O106     Si58  2.99430    1    0    0    0    1    0    0    0  V  1
    O107     Si59  2.99430    1    0    0    0    1    0    0    0  V  1
    O107     Si57  2.99430    1    0    0    0    1    0    0    0  V  1
    O108     Si52  2.99430    1    0    0    0    1    0    0    0  V  1
    O108     Si54  2.99430    1    0    0    0    1    0    0    0  V  1
    O109     Si72  2.99430    1    0    0    0    1    0    0    0  V  1
    O109     Si61  2.99430    1    0    0    0    1    0    0    0  V  1
    O110     Si60  2.99430    1    0    0    0    1    0    0    0  V  1
    O110     Si49  2.99430    1    0    0    0    1    0    0    0  V  1
    O111     Si49  2.99430    1    0    0    0    1    0    0    0  V  1
    Si49     O132  2.99430    1    0    0    0    1    0    0   -1  V  1
    Si49     O117  2.99430    1    0    0    0    1    0    0   -1  V  1
    O112     Si61  2.99430    1    0    0    0    1    0    0    0  V  1
    Si50     O113  2.99430    1    0    0    0    1    0    0    0  V  1
    O113     Si63  2.99430    1    0    0    0    1    0    0    0  V  1
    Si51     O114  2.99430    1    0    0    0    1    0    0    0  V  1
    Si51     O115  2.99430    1    0    0    0    1    0    0   -1  V  1
    Si51     O133  2.99430    1    0    0    0    1    0    0   -1  V  1
    O114     Si55  2.99430    1    0    0    0    1    0    0    0  V  1
    O115     Si60  2.99430    1    0    0    0    1    0    0    1  V  1
    O116     Si63  2.99430    1    0    0    0    1    0    0    0  V  1
    O116     Si72  2.99430    1    0    0    0    1    0    0    0  V  1
    O117     Si58  2.99430    1    0    0    0    1    0    0    1  V  1
    O118     Si70  2.99430    1    0    0    0    1    0    0    0  V  1
    O118     Si61  2.99430    1    0    0    0    1    0    0    0  V  1
    Si52     O122  2.99430    1    0    0    0    1   -1    0    0  V  1
    Si52     O125  2.99430    1    0    0    0    1   -1    0    0  V  1
    Si52     O119  2.99430    1    0    0    0    1    0    0    0  V  1
    O119     Si53  2.99430    1    0    0    0    1    0    0    0  V  1
    Si54     O120  2.99430    1    0    0    0    1   -1    0    0  V  1
    Si54     O124  2.99430    1    0    0    0    1    0    0    0  V  1
    Si54     O127  2.99430    1    0    0    0    1   -1    0    0  V  1
    O120     Si57  2.99430    1    0    0    0    1    1    0    0  V  1
    O121     Si57  2.99430    1    0    0    0    1    1    0    0  V  1
    Si56     O122  2.99430    1    0    0    0    1    0    0    0  V  1
    Si57     O123  2.99430    1    0    0    0    1    0    0    0  V  1
    Si58     O124  2.99430    1    0    0    0    1    0    0    0  V  1
    Si58     O142  2.99430    1    0    0    0    1    0    0   -1  V  1
    O125     Si59  2.99430    1    0    0    0    1    1    0    0  V  1
    Si59     O128  2.99430    1    0    0    0    1   -1    0    0  V  1
    Si59     O126  2.99430    1    0    0    0    1    0    0    0  V  1
    O126     Si70  2.99430    1    0    0    0    1    0    0    0  V  1
    O127     Si60  2.99430    1    0    0    0    1    0    0    0  V  1
    Si60     O144  2.99430    1    0    0    0    1    0    0   -1  V  1
    O128     Si72  2.99430    1    0    0    0    1    0    0    0  V  1
    O129     Si71  2.99430    1    0    0    0    1    0    0    0  V  1
    O129     Si69  2.99430    1    0    0    0    1    0    0    0  V  1
    O130     Si64  2.99430    1    0    0    0    1    0    0    0  V  1
    O130     Si66  2.99430    1    0    0    0    1    0    0    0  V  1
    O131     Si61  2.99430    1    0    0    0    1    0    0    0  V  1
    Si62     O133  2.99430    1    0    0    0    1    0    0    0  V  1
    Si63     O134  2.99430    1    0    0    0    1    0    0    0  V  1
    O134     Si67  2.99430    1    0    0    0    1    0    0    0  V  1
    Si64     O138  2.99430    1    0    0    0    1   -1    0    0  V  1
    Si64     O141  2.99430    1    0    0    0    1   -1    0    0  V  1
    Si64     O135  2.99430    1    0    0    0    1    0    0    0  V  1
    O135     Si65  2.99430    1    0    0    0    1    0    0    0  V  1
    Si66     O136  2.99430    1    0    0    0    1   -1    0    0  V  1
    Si66     O140  2.99430    1    0    0    0    1    0    0    0  V  1
    Si66     O143  2.99430    1    0    0    0    1   -1    0    0  V  1
    O136     Si69  2.99430    1    0    0    0    1    1    0    0  V  1
    O137     Si69  2.99430    1    0    0    0    1    1    0    0  V  1
    Si68     O138  2.99430    1    0    0    0    1    0    0    0  V  1
    Si69     O139  2.99430    1    0    0    0    1    0    0    0  V  1
    Si70     O140  2.99430    1    0    0    0    1    0    0    0  V  1
    O141     Si71  2.99430    1    0    0    0    1    1    0    0  V  1
    Si71     O144  2.99430    1    0    0    0    1   -1    0    0  V  1
    Si71     O142  2.99430    1    0    0    0    1    0    0    0  V  1
    O143     Si72  2.99430    1    0    0    0    1    0    0    0  V  1
#End of data_ZIF-8-cg-supercell

