data_ZIF-8-cg
_chemical_formula_sum                              'AB4C8D10'
_cell_length_a			16.85090
_cell_length_b			16.85090
_cell_length_c			16.85090
_cell_angle_alpha		90.00000
_cell_angle_beta		90.00000
_cell_angle_gamma		90.00000
_cell_volume			4784.86076
_cell_formula_units_Z		12
_symmetry_space_group_name_H-M	'P 1'
_symmetry_Int_Tables_number	1
loop_
_symmetry_equiv_pos_site_id
_symmetry_equiv_pos_as_xyz
1 x,y,z
loop_
_atom_site_label
_atom_site_type_symbol
_atom_site_symmetry_multiplicity
_atom_site_fract_x
_atom_site_fract_y
_atom_site_fract_z
_atom_site_occupancy
      O1        O 1   0.3710181800   0.3710181800   0.0171272700  1
      O2        O 1   0.0171272700   0.6289818200   0.6289818200  1
      O3        O 1   0.0171272700   0.3710181800   0.3710181800  1
      O4        O 1   0.6289818200   0.6289818200   0.0171272700  1
      O5        O 1   0.6289818200   0.0171272700   0.6289818200  1
      O6        O 1   0.3710181800   0.0171272700   0.3710181800  1
      O7        O 1   0.4828727300   0.8710181800   0.1289818200  1
      O8        O 1   0.3710181800   0.9828727300   0.6289818200  1
     Si1       Si 1   0.5000000000   0.7500000000   0.0000000000  1
      O9        O 1   0.5171272700   0.8710181800   0.8710181800  1
     Si2       Si 1   0.5000000000   0.0000000000   0.7500000000  1
     O10        O 1   0.4828727300   0.1289818200   0.8710181800  1
     Si3       Si 1   0.5000000000   0.2500000000   0.0000000000  1
     O11        O 1   0.5171272700   0.1289818200   0.1289818200  1
     O12        O 1   0.6289818200   0.3710181800   0.9828727300  1
     O13        O 1   0.3710181800   0.6289818200   0.9828727300  1
     Si4       Si 1   0.0000000000   0.2500000000   0.5000000000  1
     O14        O 1   0.1289818200   0.1289818200   0.5171272700  1
     Si5       Si 1   0.2500000000   0.0000000000   0.5000000000  1
     Si6       Si 1   0.0000000000   0.5000000000   0.2500000000  1
     Si7       Si 1   0.5000000000   0.0000000000   0.2500000000  1
     O15        O 1   0.6289818200   0.9828727300   0.3710181800  1
     O16        O 1   0.9828727300   0.6289818200   0.3710181800  1
     O17        O 1   0.8710181800   0.8710181800   0.5171272700  1
     Si8       Si 1   0.7500000000   0.0000000000   0.5000000000  1
     O18        O 1   0.8710181800   0.1289818200   0.4828727300  1
     Si9       Si 1   0.0000000000   0.7500000000   0.5000000000  1
     O19        O 1   0.1289818200   0.8710181800   0.4828727300  1
    Si10       Si 1   0.2500000000   0.5000000000   0.0000000000  1
     O20        O 1   0.1289818200   0.5171272700   0.1289818200  1
     O21        O 1   0.9828727300   0.3710181800   0.6289818200  1
    Si11       Si 1   0.0000000000   0.5000000000   0.7500000000  1
     O22        O 1   0.1289818200   0.4828727300   0.8710181800  1
     O23        O 1   0.8710181800   0.4828727300   0.1289818200  1
    Si12       Si 1   0.7500000000   0.5000000000   0.0000000000  1
     O24        O 1   0.8710181800   0.5171272700   0.8710181800  1
loop_
_topol_link.node_label_1
_topol_link.node_label_2
_topol_link.distance
_topol_link.site_symmetry_symop_1
_topol_link.site_symmetry_translation_1_x
_topol_link.site_symmetry_translation_1_y
_topol_link.site_symmetry_translation_1_z
_topol_link.site_symmetry_symop_2
_topol_link.site_symmetry_translation_2_x
_topol_link.site_symmetry_translation_2_y
_topol_link.site_symmetry_translation_2_z
_topol_link.type
_topol_link.multiplicity
      O1      Si3  2.99430    1    0    0    0    1    0    0    0  V  1
      O1     Si10  2.99430    1    0    0    0    1    0    0    0  V  1
      O2     Si11  2.99430    1    0    0    0    1    0    0    0  V  1
      O2      Si9  2.99430    1    0    0    0    1    0    0    0  V  1
      O3      Si4  2.99430    1    0    0    0    1    0    0    0  V  1
      O3      Si6  2.99430    1    0    0    0    1    0    0    0  V  1
      O4     Si12  2.99430    1    0    0    0    1    0    0    0  V  1
      O4      Si1  2.99430    1    0    0    0    1    0    0    0  V  1
      O5      Si2  2.99430    1    0    0    0    1    0    0    0  V  1
      O5      Si8  2.99430    1    0    0    0    1    0    0    0  V  1
      O6      Si5  2.99430    1    0    0    0    1    0    0    0  V  1
      O6      Si7  2.99430    1    0    0    0    1    0    0    0  V  1
      O7      Si7  2.99430    1    0    0    0    1    0    1    0  V  1
      O7      Si1  2.99430    1    0    0    0    1    0    0    0  V  1
      O8      Si5  2.99430    1    0    0    0    1    0    1    0  V  1
      O8      Si2  2.99430    1    0    0    0    1    0    1    0  V  1
     Si1       O9  2.99430    1    0    0    0    1    0    0   -1  V  1
     Si1      O13  2.99430    1    0    0    0    1    0    0   -1  V  1
      O9      Si2  2.99430    1    0    0    0    1    0    1    0  V  1
     Si2      O10  2.99430    1    0    0    0    1    0    0    0  V  1
     O10      Si3  2.99430    1    0    0    0    1    0    0    1  V  1
     Si3      O11  2.99430    1    0    0    0    1    0    0    0  V  1
     Si3      O12  2.99430    1    0    0    0    1    0    0   -1  V  1
     O11      Si7  2.99430    1    0    0    0    1    0    0    0  V  1
     O12     Si12  2.99430    1    0    0    0    1    0    0    1  V  1
     O13     Si10  2.99430    1    0    0    0    1    0    0    1  V  1
     Si4      O18  2.99430    1    0    0    0    1   -1    0    0  V  1
     Si4      O21  2.99430    1    0    0    0    1   -1    0    0  V  1
     Si4      O14  2.99430    1    0    0    0    1    0    0    0  V  1
     O14      Si5  2.99430    1    0    0    0    1    0    0    0  V  1
     Si5      O19  2.99430    1    0    0    0    1    0   -1    0  V  1
     Si6      O16  2.99430    1    0    0    0    1   -1    0    0  V  1
     Si6      O20  2.99430    1    0    0    0    1    0    0    0  V  1
     Si6      O23  2.99430    1    0    0    0    1   -1    0    0  V  1
     Si7      O15  2.99430    1    0    0    0    1    0   -1    0  V  1
     O15      Si8  2.99430    1    0    0    0    1    0    1    0  V  1
     O16      Si9  2.99430    1    0    0    0    1    1    0    0  V  1
     O17      Si8  2.99430    1    0    0    0    1    0    1    0  V  1
     O17      Si9  2.99430    1    0    0    0    1    1    0    0  V  1
     Si8      O18  2.99430    1    0    0    0    1    0    0    0  V  1
     Si9      O19  2.99430    1    0    0    0    1    0    0    0  V  1
    Si10      O20  2.99430    1    0    0    0    1    0    0    0  V  1
    Si10      O22  2.99430    1    0    0    0    1    0    0   -1  V  1
     O21     Si11  2.99430    1    0    0    0    1    1    0    0  V  1
    Si11      O24  2.99430    1    0    0    0    1   -1    0    0  V  1
    Si11      O22  2.99430    1    0    0    0    1    0    0    0  V  1
     O23     Si12  2.99430    1    0    0    0    1    0    0    0  V  1
    Si12      O24  2.99430    1    0    0    0    1    0    0   -1  V  1
#End of data_ZIF-8-cg

